AquaCrop 7.1 (August 2023) - Output created on (date) : 28/11/2023   at (time) : 17:20:34
Soil Water Content (WC) at various depths (at center of compartments)

** Run number:  1
                 at depth (m):      0.05        0.15        0.25        0.35        0.45        0.55        0.67        0.82        0.97        1.13        1.27        1.45
   Day Month  Year   DAP Stage   WC1(vol%)   WC2(vol%)   WC3(vol%)   WC4(vol%)   WC5(vol%)   WC6(vol%)   WC7(vol%)   WC8(vol%)   WC9(vol%)  WC10(vol%)  WC11(vol%)  WC12(vol%)
     1    11  2010     1    1       19.4        21.0        21.0        21.0        21.0        21.0        21.0        21.0        21.0        21.0        21.0        21.0
     2    11  2010     2    1       18.1        21.0        21.0        21.0        21.0        21.0        21.0        21.0        21.0        21.0        21.0        21.0
     3    11  2010     3    1       17.1        21.0        21.0        21.0        21.0        21.0        21.0        21.0        21.0        21.0        21.0        21.0
     4    11  2010     4    1       16.1        21.0        21.0        21.0        21.0        21.0        21.0        21.0        21.0        21.0        21.0        21.0
     5    11  2010     5    2       15.1        21.0        21.0        21.0        21.0        21.0        21.0        21.0        21.0        21.0        21.0        21.0
     6    11  2010     6    2       14.5        20.7        21.0        21.0        21.0        21.0        21.0        21.0        21.0        21.0        21.0        21.0
     7    11  2010     7    2       21.7        20.7        21.0        21.0        21.0        21.0        21.0        21.0        21.0        21.0        21.0        21.0
     8    11  2010     8    2       18.2        20.7        21.0        21.0        21.0        21.0        21.0        21.0        21.0        21.0        21.0        21.0
     9    11  2010     9    2       17.1        20.7        21.0        21.0        21.0        21.0        21.0        21.0        21.0        21.0        21.0        21.0
    10    11  2010    10    2       16.1        20.7        21.0        21.0        21.0        21.0        21.0        21.0        21.0        21.0        21.0        21.0
    11    11  2010    11    2       15.2        20.7        21.0        21.0        21.0        21.0        21.0        21.0        21.0        21.0        21.0        21.0
    12    11  2010    12    2       14.8        20.3        21.0        21.0        21.0        21.0        21.0        21.0        21.0        21.0        21.0        21.0
    13    11  2010    13    2       14.4        19.9        21.0        21.0        21.0        21.0        21.0        21.0        21.0        21.0        21.0        21.0
    14    11  2010    14    2       22.1        19.9        21.0        21.0        21.0        21.0        21.0        21.0        21.0        21.0        21.0        21.0
    15    11  2010    15    2       18.7        19.9        21.0        21.0        21.0        21.0        21.0        21.0        21.0        21.0        21.0        21.0
    16    11  2010    16    2       17.2        19.9        21.0        21.0        21.0        21.0        21.0        21.0        21.0        21.0        21.0        21.0
    17    11  2010    17    2       16.1        19.9        21.0        21.0        21.0        21.0        21.0        21.0        21.0        21.0        21.0        21.0
    18    11  2010    18    2       15.1        19.9        21.0        21.0        21.0        21.0        21.0        21.0        21.0        21.0        21.0        21.0
    19    11  2010    19    2       14.7        19.4        21.0        21.0        21.0        21.0        21.0        21.0        21.0        21.0        21.0        21.0
    20    11  2010    20    2       14.4        18.8        21.0        21.0        21.0        21.0        21.0        21.0        21.0        21.0        21.0        21.0
    21    11  2010    21    2       22.1        18.8        21.0        21.0        21.0        21.0        21.0        21.0        21.0        21.0        21.0        21.0
    22    11  2010    22    2       18.7        18.8        21.0        21.0        21.0        21.0        21.0        21.0        21.0        21.0        21.0        21.0
    23    11  2010    23    2       16.9        18.8        21.0        21.0        21.0        21.0        21.0        21.0        21.0        21.0        21.0        21.0
    24    11  2010    24    2       15.8        18.8        21.0        21.0        21.0        21.0        21.0        21.0        21.0        21.0        21.0        21.0
    25    11  2010    25    2       14.7        18.8        21.0        21.0        21.0        21.0        21.0        21.0        21.0        21.0        21.0        21.0
    26    11  2010    26    2       14.4        18.0        21.0        21.0        21.0        21.0        21.0        21.0        21.0        21.0        21.0        21.0
    27    11  2010    27    2       14.2        17.3        21.0        21.0        21.0        21.0        21.0        21.0        21.0        21.0        21.0        21.0
    28    11  2010    28    2       21.8        17.3        21.0        21.0        21.0        21.0        21.0        21.0        21.0        21.0        21.0        21.0
    29    11  2010    29    2       18.4        17.3        21.0        21.0        21.0        21.0        21.0        21.0        21.0        21.0        21.0        21.0
    30    11  2010    30    2       16.0        17.3        21.0        21.0        21.0        21.0        21.0        21.0        21.0        21.0        21.0        21.0
     1    12  2010    31    2       14.6        17.3        21.0        21.0        21.0        21.0        21.0        21.0        21.0        21.0        21.0        21.0
     2    12  2010    32    2       14.4        16.1        21.0        21.0        21.0        21.0        21.0        21.0        21.0        21.0        21.0        21.0
     3    12  2010    33    2       14.2        15.0        21.0        21.0        21.0        21.0        21.0        21.0        21.0        21.0        21.0        21.0
     4    12  2010    34    2       14.0        15.0        19.9        21.0        21.0        21.0        21.0        21.0        21.0        21.0        21.0        21.0
     5    12  2010    35    2       21.5        15.0        19.9        21.0        21.0        21.0        21.0        21.0        21.0        21.0        21.0        21.0
     6    12  2010    36    2       19.8        15.0        19.9        21.0        21.0        21.0        21.0        21.0        21.0        21.0        21.0        21.0
     7    12  2010    37    2       17.9        15.0        19.9        21.0        21.0        21.0        21.0        21.0        21.0        21.0        21.0        21.0
     8    12  2010    38    2       16.2        15.0        19.9        21.0        21.0        21.0        21.0        21.0        21.0        21.0        21.0        21.0
     9    12  2010    39    2       14.6        15.0        19.9        21.0        21.0        21.0        21.0        21.0        21.0        21.0        21.0        21.0
    10    12  2010    40    2       14.4        15.0        18.5        21.0        21.0        21.0        21.0        21.0        21.0        21.0        21.0        21.0
    11    12  2010    41    2       14.2        15.0        17.1        21.0        21.0        21.0        21.0        21.0        21.0        21.0        21.0        21.0
    12    12  2010    42    2       22.0        15.0        17.1        21.0        21.0        21.0        21.0        21.0        21.0        21.0        21.0        21.0
    13    12  2010    43    2       18.7        15.0        17.1        21.0        21.0        21.0        21.0        21.0        21.0        21.0        21.0        21.0
    14    12  2010    44    2       15.3        15.0        17.1        21.0        21.0        21.0        21.0        21.0        21.0        21.0        21.0        21.0
    15    12  2010    45    2       14.7        15.0        15.3        21.0        21.0        21.0        21.0        21.0        21.0        21.0        21.0        21.0
    16    12  2010    46    2       14.5        15.0        14.5        20.1        21.0        21.0        21.0        21.0        21.0        21.0        21.0        21.0
    17    12  2010    47    2       14.4        15.0        14.5        18.4        21.0        21.0        21.0        21.0        21.0        21.0        21.0        21.0
    18    12  2010    48    2       14.3        15.0        14.5        16.8        21.0        21.0        21.0        21.0        21.0        21.0        21.0        21.0
    19    12  2010    49    2       22.0        15.0        14.5        16.8        21.0        21.0        21.0        21.0        21.0        21.0        21.0        21.0
    20    12  2010    50    2       18.6        15.0        14.5        16.8        21.0        21.0        21.0        21.0        21.0        21.0        21.0        21.0
    21    12  2010    51    2       15.3        15.0        14.5        16.8        21.0        21.0        21.0        21.0        21.0        21.0        21.0        21.0
    22    12  2010    52    2       14.2        15.0        14.5        15.0        21.0        21.0        21.0        21.0        21.0        21.0        21.0        21.0
    23    12  2010    53    2       14.1        15.0        14.5        15.0        19.2        21.0        21.0        21.0        21.0        21.0        21.0        21.0
    24    12  2010    54    2       14.1        15.0        14.5        15.0        17.4        21.0        21.0        21.0        21.0        21.0        21.0        21.0
    25    12  2010    55    2       14.0        15.0        14.5        15.0        15.7        21.0        21.0        21.0        21.0        21.0        21.0        21.0
    26    12  2010    56    2       21.6        15.0        14.5        15.0        15.7        21.0        21.0        21.0        21.0        21.0        21.0        21.0
    27    12  2010    57    2       18.2        15.0        14.5        15.0        15.7        21.0        21.0        21.0        21.0        21.0        21.0        21.0
    28    12  2010    58    2       15.1        15.0        14.5        15.0        15.7        21.0        21.0        21.0        21.0        21.0        21.0        21.0
    29    12  2010    59    2       14.0        15.0        14.5        15.0        14.4        20.4        21.0        21.0        21.0        21.0        21.0        21.0
    30    12  2010    60    2       13.6        15.0        14.5        15.0        14.4        18.7        21.0        21.0        21.0        21.0        21.0        21.0
    31    12  2010    61    2       13.5        15.0        14.5        15.0        14.4        16.9        21.0        21.0        21.0        21.0        21.0        21.0
     1     1  2011    62    2       13.5        15.0        14.5        15.0        14.4        15.3        21.0        21.0        21.0        21.0        21.0        21.0
     2     1  2011    63    2       21.2        15.0        14.5        15.0        14.4        15.3        21.0        21.0        21.0        21.0        21.0        21.0
     3     1  2011    64    2       17.9        15.0        14.5        15.0        14.4        15.3        21.0        21.0        21.0        21.0        21.0        21.0
     4     1  2011    65    2       15.1        15.0        14.5        15.0        14.4        15.3        21.0        21.0        21.0        21.0        21.0        21.0
     5     1  2011    66    2       14.1        15.0        14.5        15.0        14.4        14.7        20.2        21.0        21.0        21.0        21.0        21.0
     6     1  2011    67    3       13.4        15.0        14.5        15.0        14.4        14.7        19.1        21.0        21.0        21.0        21.0        21.0
     7     1  2011    68    3       13.3        15.0        14.5        15.0        14.4        14.7        18.1        21.0        21.0        21.0        21.0        21.0
     8     1  2011    69    3       13.2        15.0        14.5        15.0        14.4        14.7        17.1        21.0        21.0        21.0        21.0        21.0
     9     1  2011    70    3       20.9        15.0        14.5        15.0        14.4        14.7        17.1        21.0        21.0        21.0        21.0        21.0
    10     1  2011    71    3       17.5        15.0        14.5        15.0        14.4        14.7        17.1        21.0        21.0        21.0        21.0        21.0
    11     1  2011    72    3       15.0        15.0        14.5        15.0        14.4        14.7        17.1        21.0        21.0        21.0        21.0        21.0
    12     1  2011    73    3       14.1        15.0        14.5        15.0        14.4        14.7        16.1        21.0        21.0        21.0        21.0        21.0
    13     1  2011    74    3       13.3        15.0        14.5        15.0        14.4        14.7        15.2        21.0        21.0        21.0        21.0        21.0
    14     1  2011    75    3       13.3        15.0        14.5        15.0        14.4        14.7        14.8        20.5        21.0        21.0        21.0        21.0
    15     1  2011    76    3       13.2        15.0        14.5        15.0        14.4        14.7        14.8        19.6        21.0        21.0        21.0        21.0
    16     1  2011    77    3       21.0        15.0        14.5        15.0        14.4        14.7        14.8        19.6        21.0        21.0        21.0        21.0
    17     1  2011    78    3       17.8        15.0        14.5        15.0        14.4        14.7        14.8        19.6        21.0        21.0        21.0        21.0
    18     1  2011    79    3       15.5        15.0        14.5        15.0        14.4        14.7        14.8        19.6        21.0        21.0        21.0        21.0
    19     1  2011    80    4       14.6        15.0        14.5        15.0        14.4        14.7        14.8        18.7        21.0        21.0        21.0        21.0
    20     1  2011    81    4       13.7        15.0        14.5        15.0        14.4        14.7        14.8        17.9        21.0        21.0        21.0        21.0
    21     1  2011    82    4       14.1        15.0        14.5        15.0        14.4        14.7        14.8        17.1        21.0        21.0        21.0        21.0
    22     1  2011    83    4       13.7        15.0        14.5        15.0        14.4        14.7        14.8        16.4        21.0        21.0        21.0        21.0
    23     1  2011    84    4       21.5        15.0        14.5        15.0        14.4        14.7        14.8        16.4        21.0        21.0        21.0        21.0
    24     1  2011    85    4       18.2        15.0        14.5        15.0        14.4        14.7        14.8        16.4        21.0        21.0        21.0        21.0
    25     1  2011    86    4       16.8        15.0        14.5        15.0        14.4        14.7        14.8        16.4        21.0        21.0        21.0        21.0
    26     1  2011    87    4       15.2        15.0        14.5        15.0        14.4        14.7        14.8        16.4        21.0        21.0        21.0        21.0
    27     1  2011    88    4       14.8        15.0        14.5        15.0        14.4        14.7        14.8        15.8        21.0        21.0        21.0        21.0
    28     1  2011    89    4       14.7        15.0        14.5        15.0        14.4        14.7        14.8        15.0        21.0        21.0        21.0        21.0
    29     1  2011    90    4       14.6        15.0        14.5        15.0        14.4        14.7        14.8        15.0        20.3        21.0        21.0        21.0
    30     1  2011    91    4       22.4        15.0        14.5        15.0        14.4        14.7        14.8        15.0        20.3        21.0        21.0        21.0
    31     1  2011    92    4       19.1        15.0        14.5        15.0        14.4        14.7        14.8        15.0        20.3        21.0        21.0        21.0
     1     2  2011    93    4       16.7        15.0        14.5        15.0        14.4        14.7        14.8        15.0        20.3        21.0        21.0        21.0
     2     2  2011    94    4       14.6        15.0        14.5        15.0        14.4        14.7        14.8        15.0        20.3        21.0        21.0        21.0
     3     2  2011    95    4       13.9        15.0        14.5        15.0        14.4        14.7        14.8        15.0        19.6        21.0        21.0        21.0
     4     2  2011    96    4       13.9        15.0        14.5        15.0        14.4        14.7        14.8        15.0        19.0        21.0        21.0        21.0
     5     2  2011    97    4       13.8        15.0        14.5        15.0        14.4        14.7        14.8        15.0        18.3        21.0        21.0        21.0
     6     2  2011    98    4       23.1        15.0        14.5        15.0        14.4        14.7        14.8        15.0        18.3        21.0        21.0        21.0
     7     2  2011    99    4       19.7        15.0        14.5        15.0        14.4        14.7        14.8        15.0        18.3        21.0        21.0        21.0
     8     2  2011   100    4       16.9        15.0        14.5        15.0        14.4        14.7        14.8        15.0        18.3        21.0        21.0        21.0
     9     2  2011   101    4       14.7        15.0        14.5        15.0        14.4        14.7        14.8        15.0        18.3        21.0        21.0        21.0
    10     2  2011   102    4       13.3        15.0        14.5        15.0        14.4        14.7        14.8        15.0        17.7        21.0        21.0        21.0
    11     2  2011   103    4       11.9        15.0        14.5        15.0        14.4        14.7        14.8        15.0        17.2        21.0        21.0        21.0
    12     2  2011   104    4       10.6        15.0        14.5        15.0        14.4        14.7        14.8        15.0        16.7        21.0        21.0        21.0
    13     2  2011   105    4       17.9        15.0        14.5        15.0        14.4        14.7        14.8        15.0        16.7        21.0        21.0        21.0
    14     2  2011   106    4       15.7        15.0        14.5        15.0        14.4        14.7        14.8        15.0        16.7        21.0        21.0        21.0
    15     2  2011   107    4       14.4        15.0        14.5        15.0        14.4        14.7        14.8        15.0        16.1        21.0        21.0        21.0
    16     2  2011   108    4       13.2        15.0        14.5        15.0        14.4        14.7        14.8        15.0        15.5        21.0        21.0        21.0
    17     2  2011   109    4       13.2        15.0        14.5        15.0        14.4        14.7        14.8        15.0        15.0        21.0        21.0        21.0
    18     2  2011   110    4       13.1        15.0        14.5        15.0        14.4        14.7        14.8        15.0        15.0        20.5        21.0        21.0
    19     2  2011   111    4       13.0        15.0        14.5        15.0        14.4        14.7        14.8        15.0        15.0        20.1        21.0        21.0
    20     2  2011   112    4       20.3        15.0        14.5        15.0        14.4        14.7        14.8        15.0        15.0        20.1        21.0        21.0
    21     2  2011   113    4       17.1        15.0        14.5        15.0        14.4        14.7        14.8        15.0        15.0        20.1        21.0        21.0
    22     2  2011   114    4       14.9        15.0        14.5        15.0        14.4        14.7        14.8        15.0        15.0        20.1        21.0        21.0
    23     2  2011   115    4       14.0        15.0        14.5        15.0        14.4        14.7        14.8        15.0        15.0        19.6        21.0        21.0
    24     2  2011   116    4       13.9        15.0        14.5        15.0        14.4        14.7        14.8        15.0        15.0        19.2        21.0        21.0
    25     2  2011   117    4       13.8        15.0        14.5        15.0        14.4        14.7        14.8        15.0        15.0        18.8        21.0        21.0
    26     2  2011   118    4       13.7        15.0        14.5        15.0        14.4        14.7        14.8        15.0        15.0        18.5        21.0        21.0
    27     2  2011   119    4       21.3        15.0        14.5        15.0        14.4        14.7        14.8        15.0        15.0        18.5        21.0        21.0
    28     2  2011   120    4       18.1        15.0        14.5        15.0        14.4        14.7        14.8        15.0        15.0        18.5        21.0        21.0
     1     3  2011   121    4       16.1        15.0        14.5        15.0        14.4        14.7        14.8        15.0        15.0        18.5        21.0        21.0
     2     3  2011   122    4       14.7        15.0        14.5        15.0        14.4        14.7        14.8        15.0        15.0        18.5        21.0        21.0
     3     3  2011   123    4       14.6        15.0        14.5        15.0        14.4        14.7        14.8        15.0        15.0        18.2        21.0        21.0
     4     3  2011   124    4       14.5        15.0        14.5        15.0        14.4        14.7        14.8        15.0        15.0        17.9        21.0        21.0
     5     3  2011   125    4       14.3        15.0        14.5        15.0        14.4        14.7        14.8        15.0        15.0        17.6        21.0        21.0
     6     3  2011   126    4       22.0        15.0        14.5        15.0        14.4        14.7        14.8        15.0        15.0        17.6        21.0        21.0
     7     3  2011   127    4       18.8        15.0        14.5        15.0        14.4        14.7        14.8        15.0        15.0        17.6        21.0        21.0
     8     3  2011   128    4       16.5        15.0        14.5        15.0        14.4        14.7        14.8        15.0        15.0        17.6        21.0        21.0
     9     3  2011   129    4       15.9        15.0        14.5        15.0        14.4        14.7        14.8        15.0        15.0        17.6        21.0        21.0
    10     3  2011   130    4       15.5        15.0        14.5        15.0        14.4        14.7        14.8        15.0        15.0        17.6        21.0        21.0
    11     3  2011   131    4       15.1        15.0        14.5        15.0        14.4        14.7        14.8        15.0        15.0        17.6        21.0        21.0
    12     3  2011   132    4       14.9        15.0        14.5        15.0        14.4        14.7        14.8        15.0        15.0        17.5        21.0        21.0
    13     3  2011   133    4       23.3        15.0        14.5        15.0        14.4        14.7        14.8        15.0        15.0        17.5        21.0        21.0
    14     3  2011   134    4       20.5        15.0        14.5        15.0        14.4        14.7        14.8        15.0        15.0        17.5        21.0        21.0
    15     3  2011   135    4       18.5        15.0        14.5        15.0        14.4        14.7        14.8        15.0        15.0        17.5        21.0        21.0
    16     3  2011   136    4       17.9        15.0        14.5        15.0        14.4        14.7        14.8        15.0        15.0        17.5        21.0        21.0
    17     3  2011   137    4       17.4        15.0        14.5        15.0        14.4        14.7        14.8        15.0        15.0        17.5        21.0        21.0
    18     3  2011   138    4       17.0        15.0        14.5        15.0        14.4        14.7        14.8        15.0        15.0        17.5        21.0        21.0
    19     3  2011   139    4       16.6        15.0        14.5        15.0        14.4        14.7        14.8        15.0        15.0        17.5        21.0        21.0
    20     3  2011   140    4       24.2        15.0        14.5        15.0        14.4        14.7        14.8        15.0        15.0        17.5        21.0        21.0
    21     3  2011   141    4       21.1        15.0        14.5        15.0        14.4        14.7        14.8        15.0        15.0        17.5        21.0        21.0
    22     3  2011    -9    0       20.3        15.0        14.5        15.0        14.4        14.7        14.8        15.0        15.0        17.5        21.0        21.0
    23     3  2011    -9    0       19.6        15.0        14.5        15.0        14.4        14.7        14.8        15.0        15.0        17.5        21.0        21.0
    24     3  2011    -9    0       18.9        15.0        14.5        15.0        14.4        14.7        14.8        15.0        15.0        17.5        21.0        21.0
    25     3  2011    -9    0       18.3        15.0        14.5        15.0        14.4        14.7        14.8        15.0        15.0        17.5        21.0        21.0

Legend

DAP          : Days after planting
Stage        : 0: before/after planting
Stage        : 1: emergence or transplant recovery
Stage        : 2: vegetative stage
Stage        : 3: flowering
Stage        : 4: yield formation and ripening
