AquaCrop 7.1 (August 2023) - Output created on (date) : 28/11/2023   at (time) : 17:20:34
Crop development and production

** Run number:  1
   Day Month  Year   DAP Stage    GD       Z     StExp  StSto  StSen StSalt StWeed   CC      CCw     StTr  Kc(Tr)     Trx      Tr       TrW  Tr/Trx   WP    Biomass     HI    Y(dry)  Y(fresh)  Brelative   WPet      Bin     Bout
                                °C-day     m       %      %      %      %      %      %       %       %       -        mm       mm       mm    %     g/m2    ton/ha      %    ton/ha   ton/ha       %      kg/m3   ton/ha   ton/ha
     1    11  2010     1    1    23.8    0.30     -9     -9     -9      0     -9     0.0     0.0      0    -9.00      0.0      0.0      0.0   100    15.8     0.000    -9.9    0.000   -9.000       -9      0.00    0.000    0.000
     2    11  2010     2    1    23.0    0.30     -9     -9     -9      0     -9     0.0     0.0      0    -9.00      0.0      0.0      0.0   100    15.8     0.000    -9.9    0.000   -9.000       -9      0.00    0.000    0.000
     3    11  2010     3    1    22.4    0.39     -9     -9     -9      0     -9     0.0     0.0      0    -9.00      0.0      0.0      0.0   100    15.8     0.000    -9.9    0.000   -9.000       -9      0.00    0.000    0.000
     4    11  2010     4    1    21.8    0.46     -9      4      0      0      0     3.4     3.4      0     0.06      0.3      0.2      0.2    96    15.8     0.010    -9.9    0.000   -9.000       96      0.00    0.000    0.000
     5    11  2010     5    2    21.8    0.53     -9      6      0      0      0     4.0     4.0      0     0.07      0.3      0.3      0.3    94    15.8     0.020    -9.9    0.000   -9.000       95      0.00    0.000    0.000
     6    11  2010     6    2    21.9    0.58    100      8      0      0      0     4.0     4.0      0     0.07      0.3      0.3      0.3    92    15.8     0.031    -9.9    0.000   -9.000       89      0.00    0.000    0.000
     7    11  2010     7    2    21.9    0.63      2      0      0      0      0     4.6     4.6      0     0.08      0.4      0.4      0.4   100    15.8     0.044    -9.9    0.000   -9.000       88      0.00    0.000    0.000
     8    11  2010     8    2    21.9    0.68     35      0      0      0      0     5.0     5.0      0     0.09      0.4      0.4      0.4   100    15.8     0.059    -9.9    0.000   -9.000       87      0.00    0.000    0.000
     9    11  2010     9    2    22.2    0.73     76      0      0      0      0     5.2     5.2      0     0.09      0.4      0.4      0.4   100    15.8     0.074    -9.9    0.000   -9.000       84      0.00    0.000    0.000
    10    11  2010    10    2    22.3    0.78     81      0      0      0      0     5.3     5.3      0     0.10      0.4      0.4      0.4   100    15.8     0.089    -9.9    0.000   -9.000       80      0.00    0.000    0.000
    11    11  2010    11    2    22.3    0.82     84      0      0      0      0     5.5     5.5      0     0.10      0.4      0.4      0.4   100    15.8     0.105    -9.9    0.000   -9.000       76      0.00    0.000    0.000
    12    11  2010    12    2    22.5    0.87     88      0      0      0      0     5.6     5.6      0     0.10      0.4      0.4      0.4   100    15.8     0.121    -9.9    0.000   -9.000       72      0.00    0.000    0.000
    13    11  2010    13    2    22.1    0.91     92      0      0      0      0     5.6     5.6      0     0.10      0.4      0.4      0.4   100    15.8     0.137    -9.9    0.000   -9.000       67      0.00    0.000    0.000
    14    11  2010    14    2    21.7    0.95      1      0      0      0      0     6.5     6.5      0     0.12      0.4      0.4      0.4   100    15.8     0.155    -9.9    0.000   -9.000       64      0.00    0.000    0.000
    15    11  2010    15    2    21.7    0.98     23      0      0      0      0     7.2     7.2      0     0.13      0.5      0.5      0.5   100    15.8     0.176    -9.9    0.000   -9.000       61      0.00    0.000    0.000
    16    11  2010    16    2    21.8    1.02     69      0      0      0      0     7.6     7.6      0     0.14      0.5      0.5      0.5   100    15.8     0.198    -9.9    0.000   -9.000       58      0.00    0.000    0.000
    17    11  2010    17    2    22.0    1.06     76      0      0      0      0     7.8     7.8      0     0.14      0.5      0.5      0.5   100    15.8     0.220    -9.9    0.000   -9.000       55      0.00    0.000    0.000
    18    11  2010    18    2    22.3    1.10     81      0      0      0      0     8.1     8.1      0     0.14      0.6      0.6      0.6   100    15.8     0.243    -9.9    0.000   -9.000       52      0.00    0.000    0.000
    19    11  2010    19    2    22.1    1.13     83      0      0      0      0     8.3     8.3      0     0.15      0.6      0.6      0.6   100    15.8     0.266    -9.9    0.000   -9.000       49      0.00    0.000    0.000
    20    11  2010    20    2    21.8    1.17     84      0      0      0      0     8.4     8.4      0     0.15      0.6      0.6      0.6   100    15.8     0.290    -9.9    0.000   -9.000       46      0.00    0.000    0.000
    21    11  2010    21    2    21.5    1.20      2      0      0      0      0     9.7     9.7      0     0.17      0.6      0.6      0.6   100    15.8     0.317    -9.9    0.000   -9.000       44      0.00    0.000    0.000
    22    11  2010    22    2    20.9    1.23     22      0      0      0      0    10.8    10.8      0     0.19      0.7      0.7      0.7   100    15.8     0.347    -9.9    0.000   -9.000       42      0.00    0.000    0.000
    23    11  2010    23    2    20.6    1.26     63      0      0      0      0    11.4    11.4      0     0.20      0.7      0.7      0.7   100    15.8     0.379    -9.9    0.000   -9.000       40      0.00    0.000    0.000
    24    11  2010    24    2    20.6    1.29     69      0      0      0      0    11.9    11.9      0     0.21      0.7      0.7      0.7   100    15.8     0.412    -9.9    0.000   -9.000       39      0.00    0.000    0.000
    25    11  2010    25    2    20.4    1.32     73      0      0      0      0    12.3    12.3      0     0.22      0.8      0.8      0.8   100    15.8     0.446    -9.9    0.000   -9.000       37      0.00    0.000    0.000
    26    11  2010    26    2    20.2    1.35     77      0      0      0      0    12.7    12.7      0     0.22      0.8      0.8      0.8   100    15.8     0.481    -9.9    0.000   -9.000       36      0.00    0.000    0.000
    27    11  2010    27    2    20.1    1.38     80      0      0      0      0    13.0    13.0      0     0.23      0.8      0.8      0.8   100    15.8     0.517    -9.9    0.000   -9.000       35      0.00    0.000    0.000
    28    11  2010    28    2    20.3    1.41      2      0      0      0      0    14.9    14.9      0     0.26      0.9      0.9      0.9   100    15.8     0.557    -9.9    0.000   -9.000       35      0.00    0.000    0.000
    29    11  2010    29    2    20.4    1.44     27      0      0      0      0    16.4    16.4      0     0.28      1.0      1.0      1.0   100    15.8     0.602    -9.9    0.000   -9.000       35      0.00    0.000    0.000
    30    11  2010    30    2    20.6    1.46     67      0      0      0      0    17.2    17.2      0     0.29      1.0      1.0      1.0   100    15.8     0.648    -9.9    0.000   -9.000       34      0.00    0.000    0.000
     1    12  2010    31    2    21.4    1.49     81      0      0      0      0    17.6    17.6      0     0.30      1.1      1.1      1.1   100    15.8     0.695    -9.9    0.000   -9.000       34      0.00    0.000    0.000
     2    12  2010    32    2    21.4    1.50     84      0      0      0      0    18.0    18.0      0     0.31      1.1      1.1      1.1   100    15.8     0.743    -9.9    0.000   -9.000       34      0.00    0.000    0.000
     3    12  2010    33    2    21.6    1.50     92      0      0      0      0    18.1    18.1      0     0.31      1.2      1.2      1.2   100    15.8     0.792    -9.9    0.000   -9.000       34      0.00    0.000    0.000
     4    12  2010    34    2    21.7    1.50     96      0      0      0      0    18.1    18.1      0     0.31      1.1      1.1      1.1   100    15.8     0.840    -9.9    0.000   -9.000       34      0.00    0.000    0.000
     5    12  2010    35    2    21.9    1.50      2      0      0      0      0    20.9    20.9      0     0.35      1.3      1.3      1.3   100    15.8     0.895    -9.9    0.000   -9.000       34      0.00    0.000    0.000
     6    12  2010    36    2    22.1    1.50     12      0      0      0      0    23.8    23.8      0     0.39      1.4      1.4      1.4   100    15.8     0.957    -9.9    0.000   -9.000       34      0.00    0.000    0.000
     7    12  2010    37    2    21.9    1.50     73      0      0      0      0    24.7    24.7      0     0.40      1.4      1.4      1.4   100    15.8     1.021    -9.9    0.000   -9.000       35      0.00    0.000    0.000
     8    12  2010    38    2    21.3    1.50     78      0      0      0      0    25.5    25.5      0     0.41      1.4      1.4      1.4   100    15.8     1.086    -9.9    0.000   -9.000       35      0.00    0.000    0.000
     9    12  2010    39    2    21.0    1.50     82      0      0      0      0    26.2    26.2      0     0.42      1.4      1.4      1.4   100    15.8     1.153    -9.9    0.000   -9.000       35      0.00    0.000    0.000
    10    12  2010    40    2    21.0    1.50     86      0      0      0      0    26.6    26.6      0     0.43      1.4      1.4      1.4   100    15.8     1.221    -9.9    0.000   -9.000       36      0.00    0.000    0.000
    11    12  2010    41    2    20.6    1.50     93      0      0      0      0    26.6    26.6      0     0.43      1.4      1.4      1.4   100    15.8     1.288    -9.9    0.000   -9.000       36      0.00    0.000    0.000
    12    12  2010    42    2    20.4    1.50      1      0      0      0      0    30.4    30.4      0     0.48      1.6      1.6      1.6   100    15.8     1.364    -9.9    0.000   -9.000       37      0.00    0.000    0.000
    13    12  2010    43    2    19.9    1.50     21      0      0      0      0    33.7    33.7      0     0.52      1.7      1.7      1.7   100    15.8     1.447    -9.9    0.000   -9.000       37      0.00    0.000    0.000
    14    12  2010    44    2    19.3    1.50     85      0      0      0      0    34.1    34.1      0     0.53      1.8      1.8      1.8   100    15.8     1.530    -9.9    0.000   -9.000       38      0.00    0.000    0.000
    15    12  2010    45    2    19.5    1.50    100      1      0      0      0    34.1    34.1      0     0.53      1.8      1.8      1.8    99    15.8     1.613    -9.9    0.000   -9.000       38      0.00    0.000    0.000
    16    12  2010    46    2    20.4    1.50    100      4      0      0      0    34.1    34.1      0     0.53      1.8      1.7      1.7    96    15.8     1.693    -9.9    0.000   -9.000       39      0.00    0.000    0.000
    17    12  2010    47    2    21.1    1.50    100      6      0      0      0    34.1    34.1      0     0.53      1.8      1.7      1.7    94    15.8     1.771    -9.9    0.000   -9.000       39      0.00    0.000    0.000
    18    12  2010    48    2    21.1    1.50    100      8      0      0      0    34.1    34.1      0     0.53      1.7      1.6      1.6    92    15.8     1.848    -9.9    0.000   -9.000       39      0.00    0.000    0.000
    19    12  2010    49    2    20.5    1.50      1      0      0      0      0    39.0    39.0      0     0.59      1.9      1.9      1.9   100    15.8     1.941    -9.9    0.000   -9.000       40      0.00    0.000    0.000
    20    12  2010    50    2    20.4    1.50     21      0      0      0      0    43.2    43.2      0     0.63      2.1      2.1      2.1   100    15.8     2.041    -9.9    0.000   -9.000       41      0.00    0.000    0.000
    21    12  2010    51    2    19.9    1.50    100      5      0      0      0    43.2    43.2      0     0.63      2.0      1.9      1.9    95    15.8     2.136    -9.9    0.000   -9.000       41      0.00    0.000    0.000
    22    12  2010    52    2    18.8    1.50    100      9      0      0      0    43.2    43.2      0     0.63      2.0      1.8      1.8    91    15.8     2.228    -9.9    0.000   -9.000       42      0.00    0.000    0.000
    23    12  2010    53    2    18.6    1.50    100     12      0      0      0    43.2    43.2      0     0.63      2.0      1.8      1.8    88    15.8     2.316    -9.9    0.000   -9.000       42      0.00    0.000    0.000
    24    12  2010    54    2    19.6    1.50    100     15      0      0      0    43.2    43.2      0     0.63      2.1      1.8      1.8    85    15.8     2.401    -9.9    0.000   -9.000       43      0.00    0.000    0.000
    25    12  2010    55    2    20.1    1.50    100     18      1      0      0    43.2    43.2      0     0.63      2.1      1.7      1.7    82    15.8     2.483    -9.9    0.000   -9.000       43      0.00    0.000    0.000
    26    12  2010    56    2    20.0    1.50      2      0      0      0      0    47.7    47.7      0     0.68      2.2      2.2      2.2   100    15.8     2.591    -9.9    0.000   -9.000       43      0.00    0.000    0.000
    27    12  2010    57    2    19.9    1.50     28      0      0      0      0    50.3    50.3      0     0.71      2.3      2.3      2.3   100    15.8     2.703    -9.9    0.000   -9.000       44      0.00    0.000    0.000
    28    12  2010    58    2    20.3    1.50    100     16      0      0      0    50.3    50.3      0     0.71      2.4      2.0      2.0    84    15.8     2.796    -9.9    0.000   -9.000       45      0.00    0.000    0.000
    29    12  2010    59    2    19.8    1.50    100     20      1      0      0    50.3    50.3      0     0.71      2.3      1.9      1.9    80    15.8     2.886    -9.9    0.000   -9.000       45      0.00    0.000    0.000
    30    12  2010    60    2    19.4    1.50    100     23      2      0      0    50.3    50.3      0     0.71      2.3      1.8      1.8    77    15.8     2.972    -9.9    0.000   -9.000       45      0.00    0.000    0.000
    31    12  2010    61    2    19.6    1.50    100     25      3      0      0    50.2    50.2      0     0.70      2.3      1.7      1.7    75    15.8     3.055    -9.9    0.000   -9.000       45      0.00    0.000    0.000
     1     1  2011    62    2    18.9    1.50    100     27      4      0      0    50.2    50.2      0     0.70      2.2      1.6      1.6    73    15.8     3.135    -9.9    0.000   -9.000       45      0.00    0.000    0.000
     2     1  2011    63    2    18.9    1.50      3      0      0      0      0    52.9    52.9      0     0.73      2.3      2.3      2.3   100    15.8     3.251    -9.9    0.000   -9.000       46      0.00    0.000    0.000
     3     1  2011    64    2    19.3    1.50     39      0      0      0      0    54.1    54.1      0     0.74      2.4      2.4      2.4   100    15.8     3.368    -9.9    0.000   -9.000       47      0.00    0.000    0.000
     4     1  2011    65    2    19.7    1.50    100     26      3      0      0    54.1    54.1      0     0.74      2.5      1.9      1.9    74    15.8     3.454    -9.9    0.000   -9.000       47      0.00    0.000    0.000
     5     1  2011    66    2    19.1    1.50    100     29      4      0      0    54.0    54.0      0     0.74      2.4      1.7      1.7    71    15.8     3.537    -9.9    0.000   -9.000       47      0.00    0.000    0.000
     6     1  2011    67    3    18.4    1.50    100     32      5      0      0    54.0    54.0      0     0.74      2.4      1.6      1.6    68    15.8     3.616    -9.9    0.000   -9.000       47      0.00    0.000    0.000
     7     1  2011    68    3    18.4    1.50    100     34      7      0      0    53.9    53.9      0     0.73      2.3      1.5      1.5    66    15.8     3.692    -9.9    0.000   -9.000       47      0.00    0.000    0.000
     8     1  2011    69    3    18.9    1.50    100     37      8      0      0    53.8    53.8      0     0.73      2.4      1.5      1.5    63    15.8     3.765    -9.9    0.000   -9.000       47      0.00    0.000    0.000
     9     1  2011    70    3    19.2    1.50      4      0      0      0      0    54.7    54.7      0     0.74      2.5      2.5      2.5   100    15.8     3.883    -9.9    0.000   -9.000       48      0.00    0.000    0.000
    10     1  2011    71    3    19.3    1.50     49      0      0      0      0    54.8    54.8      0     0.74      2.5      2.5      2.5   100    15.8     4.000     1.4    0.058   -9.000       48      0.04    0.000    0.000
    11     1  2011    72    3    19.6    1.50     -9     34      6      0      0    54.8    54.8      0     0.74      2.4      1.6      1.6    66    15.8     4.077     1.6    0.064   -9.000       48      0.04    0.000    0.000
    12     1  2011    73    3    20.1    1.50     -9     37      8      0      0    54.7    54.7      0     0.74      2.4      1.5      1.5    63    15.8     4.150     1.7    0.072   -9.000       48      0.05    0.000    0.000
    13     1  2011    74    3    19.4    1.50     -9     39      9      0      0    54.6    54.6      0     0.74      2.2      1.3      1.3    61    15.8     4.221     1.9    0.080   -9.000       48      0.05    0.000    0.000
    14     1  2011    75    3    18.9    1.50     -9     42     11      0      0    54.4    54.4      0     0.73      2.3      1.3      1.3    58    15.8     4.288     2.1    0.089   -9.000       48      0.06    0.000    0.000
    15     1  2011    76    3    18.8    1.50     -9     44     12      0      0    54.3    54.3      0     0.73      2.3      1.3      1.3    56    15.8     4.353     2.3    0.099   -9.000       48      0.06    0.000    0.000
    16     1  2011    77    3    18.4    1.50     -9      0      0      0      0    54.3    54.3      0     0.73      2.3      2.3      2.3   100    15.8     4.468     2.5    0.112   -9.000       48      0.07    0.000    0.000
    17     1  2011    78    3    18.4    1.50     -9      0      0      0      0    54.3    54.3      0     0.73      2.3      2.3      2.3   100    15.8     4.583     2.8    0.126   -9.000       49      0.07    0.000    0.000
    18     1  2011    79    3    18.7    1.50     -9     41     10      0      0    54.2    54.2      0     0.73      2.4      1.4      1.4    59    15.8     4.650     3.0    0.140   -9.000       49      0.08    0.000    0.000
    19     1  2011    80    4    18.9    1.50     -9     45     12      0      0    54.1    54.1      0     0.72      2.4      1.3      1.3    55    15.8     4.713     3.3    0.156   -9.000       48      0.09    0.000    0.000
    20     1  2011    81    4    19.4    1.50     -9     47     14      0      0    53.9    53.9      0     0.72      2.4      1.2      1.2    53    15.8     4.773     3.6    0.172   -9.000       48      0.10    0.000    0.000
    21     1  2011    82    4    19.7    1.50     -9     48     14      0      0    53.8    53.8      0     0.71      2.3      1.2      1.2    52    15.8     4.831     3.9    0.190   -9.000       48      0.11    0.000    0.000
    22     1  2011    83    4    19.2    1.50     -9     50     16      0      0    53.6    53.6      0     0.71      2.3      1.1      1.1    50    15.8     4.887     4.3    0.210   -9.000       48      0.12    0.000    0.000
    23     1  2011    84    4    19.1    1.50     -9      0      0      0      0    53.6    53.6      0     0.71      2.3      2.3      2.3   100    15.8     4.998     4.7    0.235   -9.000       48      0.13    0.000    0.000
    24     1  2011    85    4    19.1    1.50     -9      0      0      0      0    53.6    53.6      0     0.71      2.3      2.3      2.3   100    15.8     5.110     5.1    0.263   -9.000       49      0.14    0.000    0.000
    25     1  2011    86    4    19.0    1.50     -9     28      0      0      0    53.6    53.6      0     0.71      2.4      1.7      1.7    72    15.8     5.190     5.6    0.291   -9.000       49      0.15    0.000    0.000
    26     1  2011    87    4    18.6    1.50     -9     49     15      0      0    53.5    53.5      0     0.70      2.4      1.2      1.2    51    15.8     5.247     6.1    0.320   -9.000       49      0.17    0.000    0.000
    27     1  2011    88    4    18.6    1.50     -9     51     17      0      0    53.3    53.3      0     0.70      2.4      1.2      1.2    49    15.8     5.301     6.6    0.351   -9.000       48      0.18    0.000    0.000
    28     1  2011    89    4    18.8    1.50     -9     53     18      0      0    53.2    53.2      0     0.70      2.4      1.1      1.1    47    15.8     5.353     7.2    0.385   -9.000       48      0.20    0.000    0.000
    29     1  2011    90    4    19.0    1.50     -9     54     19      0      0    53.0    53.0      0     0.69      2.4      1.1      1.1    46    15.8     5.403     7.8    0.421   -9.000       48      0.22    0.000    0.000
    30     1  2011    91    4    18.9    1.50     -9      0      0      0      0    53.0    53.0      0     0.69      2.3      2.3      2.3   100    15.8     5.512     8.5    0.466   -9.000       48      0.24    0.000    0.000
    31     1  2011    92    4    19.1    1.50     -9      0      0      0      0    53.0    53.0      0     0.69      2.3      2.3      2.3   100    15.8     5.621     9.1    0.514   -9.000       49      0.26    0.000    0.000
     1     2  2011    93    4    19.1    1.50     -9     37      1      0      0    53.0    53.0      0     0.69      2.3      1.4      1.4    63    15.8     5.690     9.8    0.558   -9.000       49      0.28    0.000    0.000
     2     2  2011    94    4    18.4    1.50     -9     54     18      0      0    52.8    52.8      0     0.69      2.3      1.1      1.1    46    15.8     5.740    10.5    0.601   -9.000       48      0.29    0.000    0.000
     3     2  2011    95    4    18.5    1.50     -9     57     21      0      0    52.7    52.7      0     0.68      2.4      1.0      1.0    43    15.8     5.786    11.1    0.644   -9.000       48      0.31    0.000    0.000
     4     2  2011    96    4    18.4    1.50     -9     58     23      0      0    52.5    52.5      0     0.68      2.4      1.0      1.0    42    15.8     5.831    11.8    0.687   -9.000       48      0.33    0.000    0.000
     5     2  2011    97    4    18.3    1.50     -9     59     24      0      0    52.3    52.3      0     0.67      2.3      0.9      0.9    41    15.8     5.874    12.4    0.730   -9.000       48      0.35    0.000    0.000
     6     2  2011    98    4    18.6    1.50     -9      0      0      0      0    52.1    52.1      0     0.67      2.3      2.3      2.3   100    15.8     5.980    13.1    0.785   -9.000       48      0.37    0.000    0.000
     7     2  2011    99    4    18.4    1.50     -9      0     -9      0      0    51.9    51.9      0     0.66      2.2      2.2      2.2   100    15.8     6.084    13.8    0.840   -9.000       48      0.39    0.000    0.000
     8     2  2011   100    4    18.6    1.50     -9     30     -9      0      0    51.7    51.7      0     0.66      2.2      1.6      1.6    70    15.8     6.157    14.5    0.891   -9.000       48      0.41    0.000    0.000
     9     2  2011   101    4    18.8    1.50     -9     59     -9      0      0    51.4    51.4      0     0.65      2.3      0.9      0.9    41    15.8     6.200    15.1    0.937   -9.000       48      0.43    0.000    0.000
    10     2  2011   102    4    19.4    1.50     -9     62     -9      0      0    51.2    51.2      0     0.65      2.4      0.9      0.9    38    15.8     6.238    15.8    0.984   -9.000       48      0.44    0.000    0.000
    11     2  2011   103    4    19.3    1.50     -9     66     -9      0      0    50.9    50.9      0     0.64      2.4      0.8      0.8    34    15.8     6.273    16.4    1.030   -9.000       48      0.46    0.000    0.000
    12     2  2011   104    4    19.3    1.50     -9     68     -9      0      0    50.6    50.6      0     0.63      2.4      0.8      0.8    32    15.8     6.305    17.1    1.075   -9.000       47      0.47    0.000    0.000
    13     2  2011   105    4    19.4    1.50     -9      0     -9      0      0    50.3    50.3      0     0.62      2.4      2.4      2.4   100    15.8     6.403    17.7    1.135   -9.000       48      0.49    0.000    0.000
    14     2  2011   106    4    19.4    1.50     -9     62     -9      0      0    50.0    50.0      0     0.62      2.5      1.0      1.0    38    15.8     6.440    18.4    1.183   -9.000       47      0.51    0.000    0.000
    15     2  2011   107    4    20.0    1.50     -9     65     -9      0      0    49.6    49.6      0     0.61      2.6      0.9      0.9    35    15.8     6.473    19.0    1.230   -9.000       47      0.52    0.000    0.000
    16     2  2011   108    4    20.2    1.50     -9     68     -9      0      0    49.2    49.2      0     0.60      2.5      0.8      0.8    32    15.8     6.504    19.6    1.278   -9.000       47      0.54    0.000    0.000
    17     2  2011   109    4    20.4    1.50     -9     69     -9      0      0    48.8    48.8      0     0.59      2.5      0.8      0.8    31    15.8     6.532    20.3    1.324   -9.000       47      0.56    0.000    0.000
    18     2  2011   110    4    20.8    1.50     -9     71     -9      0      0    48.3    48.3      0     0.58      2.6      0.7      0.7    29    15.8     6.559    20.9    1.371   -9.000       46      0.57    0.000    0.000
    19     2  2011   111    4    20.9    1.50     -9     71     -9      0      0    47.8    47.8      0     0.57      2.4      0.7      0.7    29    15.8     6.585    21.5    1.418   -9.000       46      0.59    0.000    0.000
    20     2  2011   112    4    20.4    1.50     -9      0     -9      0      0    47.3    47.3      0     0.56      2.3      2.3      2.3   100    15.8     6.673    22.2    1.483   -9.000       46      0.61    0.000    0.000
    21     2  2011   113    4    20.8    1.50     -9     28     -9      0      0    46.7    46.7      0     0.55      2.5      1.8      1.8    72    15.8     6.736    22.9    1.541   -9.000       46      0.63    0.000    0.000
    22     2  2011   114    4    21.4    1.50     -9     69     -9      0      0    46.1    46.1      0     0.53      2.4      0.7      0.7    31    15.8     6.762    23.5    1.589   -9.000       46      0.64    0.000    0.000
    23     2  2011   115    4    21.3    1.50     -9     71     -9      0      0    45.5    45.5      0     0.52      2.2      0.6      0.6    29    15.8     6.786    24.1    1.637   -9.000       46      0.66    0.000    0.000
    24     2  2011   116    4    20.9    1.50     -9     72     -9      0      0    44.8    44.8      0     0.51      2.2      0.6      0.6    28    15.8     6.808    24.8    1.685   -9.000       46      0.67    0.000    0.000
    25     2  2011   117    4    20.8    1.50     -9     73     -9      0      0    44.0    44.0      0     0.49      2.2      0.6      0.6    27    15.8     6.829    25.4    1.733   -9.000       46      0.69    0.000    0.000
    26     2  2011   118    4    20.4    1.50     -9     74     -9      0      0    43.3    43.3      0     0.48      2.1      0.6      0.6    26    15.8     6.848    26.0    1.780   -9.000       45      0.71    0.000    0.000
    27     2  2011   119    4    20.3    1.50     -9      0     -9      0      0    42.5    42.5      0     0.46      2.0      2.0      2.0   100    15.8     6.921    26.7    1.847   -9.000       46      0.72    0.000    0.000
    28     2  2011   120    4    20.4    1.50     -9      9     -9      0      0    41.6    41.6      0     0.44      1.9      1.7      1.7    91    15.8     6.985    27.4    1.911   -9.000       46      0.74    0.000    0.000
     1     3  2011   121    4    20.1    1.50     -9     68     -9      0      0    40.7    40.7      0     0.43      1.8      0.6      0.6    32    15.8     7.006    28.0    1.961   -9.000       46      0.75    0.000    0.000
     2     3  2011   122    4    20.3    1.50     -9     73     -9      0      0    39.7    39.7      0     0.41      1.8      0.5      0.5    27    15.8     7.023    28.6    2.009   -9.000       45      0.77    0.000    0.000
     3     3  2011   123    4    20.4    1.50     -9     74     -9      0      0    38.6    38.6      0     0.39      1.7      0.5      0.5    26    15.8     7.040    29.2    2.057   -9.000       45      0.78    0.000    0.000
     4     3  2011   124    4    20.5    1.50     -9     74     -9      0      0    37.5    37.5      0     0.37      1.7      0.4      0.4    26    15.8     7.054    29.8    2.105   -9.000       45      0.80    0.000    0.000
     5     3  2011   125    4    20.6    1.50     -9     75     -9      0      0    36.3    36.3      0     0.35      1.6      0.4      0.4    25    15.8     7.068    30.5    2.153   -9.000       45      0.82    0.000    0.000
     6     3  2011   126    4    21.0    1.50     -9      0     -9      0      0    34.9    34.9      0     0.32      1.6      1.6      1.6   100    15.8     7.119    31.2    2.218   -9.000       45      0.83    0.000    0.000
     7     3  2011   127    4    21.6    1.50     -9      6     -9      0      0    33.5    33.5      0     0.30      1.5      1.4      1.4    94    15.8     7.163    31.8    2.280   -9.000       45      0.84    0.000    0.000
     8     3  2011   128    4    21.7    1.50     -9     63     -9      0      0    31.9    31.9      0     0.27      1.3      0.5      0.5    37    15.8     7.179    32.5    2.330   -9.000       45      0.86    0.000    0.000
     9     3  2011   129    4    21.8    1.50     -9     74     -9      0      0    30.2    30.2      0     0.25      1.2      0.3      0.3    26    15.8     7.189    33.1    2.378   -9.000       45      0.87    0.000    0.000
    10     3  2011   130    4    21.5    1.50     -9     74     -9      0      0    28.4    28.4      0     0.22      1.0      0.3      0.3    26    15.8     7.198    33.7    2.425   -9.000       45      0.89    0.000    0.000
    11     3  2011   131    4    21.4    1.50     -9     74     -9      0      0    26.5    26.5      0     0.19      0.9      0.2      0.2    26    15.8     7.206    34.3    2.472   -9.000       45      0.90    0.000    0.000
    12     3  2011   132    4    21.1    1.50     -9     75     -9      0      0    24.5    24.5      0     0.17      0.8      0.2      0.2    25    15.8     7.213    34.9    2.519   -9.000       45      0.92    0.000    0.000
    13     3  2011   133    4    20.9    1.50     -9      0     -9      0      0    22.3    22.3      0     0.14      0.6      0.6      0.6   100    15.8     7.235    35.6    2.577   -9.000       45      0.93    0.000    0.000
    14     3  2011   134    4    21.1    1.50     -9      0     -9      0      0    20.0    20.0      0     0.12      0.6      0.6      0.6   100    15.8     7.253    36.3    2.633   -9.000       45      0.94    0.000    0.000
    15     3  2011   135    4    22.3    1.50     -9     34     -9      0      0    17.4    17.4      0     0.09      0.5      0.3      0.3    66    15.8     7.262    37.0    2.685   -9.000       45      0.95    0.000    0.000
    16     3  2011   136    4    22.9    1.50     -9     47     -9      0      0    14.6    14.6      0     0.06      0.3      0.2      0.2    53    15.8     7.268    37.6    2.735   -9.000       45      0.97    0.000    0.000
    17     3  2011   137    4    22.9    1.50     -9     57     -9      0      0    11.5    11.5      0     0.04      0.2      0.1      0.1    43    15.8     7.270    38.3    2.783   -9.000       45      0.98    0.000    0.000
    18     3  2011   138    4    22.8    1.50     -9     65     -9      0      0     8.2     8.2      0     0.02      0.1      0.0      0.0    35    15.8     7.271    38.9    2.830   -9.000       45      1.00    0.000    0.000
    19     3  2011   139    4    22.6    1.50     -9     72     -9      0      0     4.6     4.6      0     0.01      0.0      0.0      0.0    28    15.8     7.272    39.4    2.867   -9.000       45      1.01    0.000    0.000
    20     3  2011   140    4    22.6    1.50     -9     -9     -9      0      0     0.8     0.8      0     0.00      0.0      0.0      0.0   100    15.8     7.272    39.5    2.869   -9.000       45      1.00    0.000    0.000
    21     3  2011   141    4    22.4    1.50     -9     -9     -9      0     -9     0.0     0.0      0    -9.00      0.0      0.0      0.0   100    15.8     7.272    -9.9    2.869   -9.000       -9      1.00    0.000    0.000
    22     3  2011    -9    0    22.4    1.50     -9     -9     -9      0     -9     0.0     0.0      0    -9.00      0.0      0.0      0.0   100    15.8     7.272    -9.9    2.869   -9.000       -9      1.00    0.000    0.000
    23     3  2011    -9    0    22.8    1.50     -9     -9     -9      0     -9     0.0     0.0      0    -9.00      0.0      0.0      0.0   100    15.8     7.272    -9.9    2.869   -9.000       -9      1.00    0.000    0.000
    24     3  2011    -9    0    23.1    1.50     -9     -9     -9      0     -9     0.0     0.0      0    -9.00      0.0      0.0      0.0   100    15.8     7.272    -9.9    2.869   -9.000       -9      1.00    0.000    0.000
    25     3  2011    -9    0    23.3    1.50     -9     -9     -9      0     -9     0.0     0.0      0    -9.00      0.0      0.0      0.0   100    15.8     7.272    -9.9    2.869   -9.000       -9      1.00    0.000    0.000

Legend

DAP          : Days after planting
Stage        : 0: before/after planting
Stage        : 1: emergence or transplant recovery
Stage        : 2: vegetative stage
Stage        : 3: flowering
Stage        : 4: yield formation and ripening
GD           : Growing degrees
Z            : Effective rooting depth
StExp        : Percent water stress reducing leaf expansion
StSto        : Percent water stress inducing stomatal closure
StSen        : Percent water stress triggering early canopy senescence
StSalt       : Percent salinity stress
StWeed       : Relative cover of weeds
CC           : Green total Canopy Cover of crop and weeds
CCw          : Green crop Canopy Cover in weed infested field
StTr         : Percent temperature stress affecting crop transpiration
Kc(Tr)       : Crop coefficient for transpiration
Trx          : Maximum total transpiration of crop and weeds
Tr           : Total transpiration of crop and weeds
TrW          : Crop transpiration in weed infested field
Tr/Trx       : Relative total transpiration of crop and weeds (100 Tr/Trx)
WP           : Crop water productivity adjusted for CO2, soil fertility and products synthesized
Biomass      : Total above-ground dry biomass
HI           : Harvest Index adjusted for failure of pollination, inadequate photosynthesis and water stress
Y(dry)       : Dry crop yield (HI x Biomass)
Y(fresh)     : Fresh crop yield
Brelative    : Relative biomass (Reference: no water, no soil fertility, no soil salinity stress, no weed infestation)
WPet         : ET Water productivity for yield part (kg yield produced per m3 water evapotranspired)
Bin          : Daily mass of assimilates remobilized from below-ground organs at start of season
Bout         : Daily mass of assimilates stored in below-ground organs at end of season
