AquaCrop 7.1 (August 2023) - Output created on (date) : 28/11/2023   at (time) : 17:20:34
Soil Water content in soil profile (WC) and root zone (Wr)

** Run number:  1   -- Water content in soil profile (WCTot layer: 0.00 - 1.55 m) and root zone (Wr with Zx = 1.50 m)
   Day Month  Year   DAP Stage     WCTot   Wr(Zx)      Z       Wr    Wr(SAT)    Wr(FC)   Wr(exp)   Wr(sto)   Wr(sen)   Wr(PWP)
                                     mm       mm       m       mm        mm        mm        mm        mm        mm        mm
     1    11  2010     1    1     323.9    313.4    0.30     61.4     138.0      93.0      83.4      61.0      59.4      45.0
     2    11  2010     2    1     322.6    312.1    0.30     60.1     138.0      93.0      83.4      60.9      59.4      45.0
     3    11  2010     3    1     321.6    311.1    0.39     78.2     179.9     121.3     108.7      79.2      77.4      58.7
     4    11  2010     4    1     320.6    310.1    0.46     92.2     212.8     143.4     125.9      93.5      89.9      69.4
     5    11  2010     5    2     319.6    309.1    0.53    104.3     241.5     162.8     143.2     106.3     102.2      78.8
     6    11  2010     6    2     318.7    308.2    0.58    115.4     267.7     180.4     159.1     118.0     113.5      87.3
     7    11  2010     7    2     325.9    315.4    0.63    133.8     292.1     196.8     173.6     128.8     123.9      95.2
     8    11  2010     8    2     322.4    311.9    0.68    140.8     315.1     212.3     186.8     138.7     133.4     102.7
     9    11  2010     9    2     321.3    310.8    0.73    149.7     337.2     227.2     199.5     148.1     142.5     109.9
    10    11  2010    10    2     320.3    309.8    0.78    158.4     358.3     241.5     211.5     157.1     151.1     116.8
    11    11  2010    11    2     319.5    309.0    0.82    166.8     378.7     255.2     223.1     165.7     159.4     123.5
    12    11  2010    12    2     318.6    308.1    0.87    175.1     398.5     268.6     234.8     174.4     167.8     130.0
    13    11  2010    13    2     317.9    307.4    0.91    182.9     417.4     281.3     245.9     182.6     175.7     136.1
    14    11  2010    14    2     325.5    315.0    0.95    198.8     435.4     293.5     256.0     190.1     183.0     142.0
    15    11  2010    15    2     322.1    311.6    0.98    203.4     453.0     305.3     266.3     197.8     190.3     147.7
    16    11  2010    16    2     320.6    310.1    1.02    209.7     470.1     316.8     277.6     206.1     198.3     153.3
    17    11  2010    17    2     319.5    309.0    1.06    216.4     487.1     328.3     287.6     213.5     205.4     158.8
    18    11  2010    18    2     318.5    308.0    1.10    223.0     503.9     339.6     297.5     220.9     212.5     164.3
    19    11  2010    19    2     317.6    307.1    1.13    229.6     520.3     350.6     306.5     227.6     219.0     169.7
    20    11  2010    20    2     316.7    306.2    1.17    235.9     536.0     361.2     315.1     234.1     225.2     174.8
    21    11  2010    21    2     324.4    313.9    1.20    250.6     551.4     371.6     323.4     240.3     231.2     179.8
    22    11  2010    22    2     321.0    310.5    1.23    253.9     566.0     381.4     331.3     246.2     236.9     184.6
    23    11  2010    23    2     319.2    308.7    1.26    258.6     580.2     391.0     339.6     252.4     242.9     189.2
    24    11  2010    24    2     318.1    307.6    1.29    263.9     594.3     400.5     347.8     258.5     248.7     193.8
    25    11  2010    25    2     317.0    306.5    1.32    269.0     608.0     409.7     355.8     264.4     254.5     198.2
    26    11  2010    26    2     316.0    305.5    1.35    274.1     621.3     418.7     363.7     270.2     260.1     202.6
    27    11  2010    27    2     314.9    304.4    1.38    279.1     634.5     427.6     371.4     276.0     265.6     206.9
    28    11  2010    28    2     322.6    312.1    1.41    292.7     647.6     436.4     379.8     282.2     271.6     211.2
    29    11  2010    29    2     319.1    308.6    1.44    295.2     660.6     445.2     387.5     287.9     277.0     215.4
    30    11  2010    30    2     316.8    306.3    1.46    298.8     673.5     453.9     394.2     292.9     281.9     219.6
     1    12  2010    31    2     315.4    304.9    1.49    303.4     686.9     462.9     404.6     300.5     289.1     224.0
     2    12  2010    32    2     314.0    303.5    1.50    303.5     689.9     464.9     405.5     301.3     289.9     225.0
     3    12  2010    33    2     312.6    302.1    1.50    302.1     689.9     464.9     406.4     301.8     290.4     225.0
     4    12  2010    34    2     311.3    300.8    1.50    300.8     689.9     464.9     405.5     301.3     289.9     225.0
     5    12  2010    35    2     318.8    308.3    1.50    308.3     689.9     464.9     405.5     301.3     289.9     225.0
     6    12  2010    36    2     317.1    306.6    1.50    306.6     689.9     464.9     405.5     301.3     289.9     225.0
     7    12  2010    37    2     315.2    304.7    1.50    304.7     689.9     464.9     403.8     300.1     288.8     225.0
     8    12  2010    38    2     313.5    303.0    1.50    303.0     689.9     464.9     402.9     299.5     288.2     225.0
     9    12  2010    39    2     311.9    301.4    1.50    301.3     689.9     464.9     402.0     298.9     287.7     225.0
    10    12  2010    40    2     310.3    299.8    1.50    299.8     689.9     464.9     401.2     298.3     287.1     225.0
    11    12  2010    41    2     308.8    298.3    1.50    298.3     689.9     464.9     401.2     298.3     287.1     225.0
    12    12  2010    42    2     316.6    306.1    1.50    306.1     689.9     464.9     402.0     298.9     287.7     225.0
    13    12  2010    43    2     313.2    302.7    1.50    302.7     689.9     464.9     402.0     298.9     287.7     225.0
    14    12  2010    44    2     309.8    299.3    1.50    299.3     689.9     464.9     402.9     299.5     288.2     225.0
    15    12  2010    45    2     307.5    297.0    1.50    296.9     689.9     464.9     402.9     299.5     288.2     225.0
    16    12  2010    46    2     305.6    295.1    1.50    295.1     689.9     464.9     402.9     299.5     288.2     225.0
    17    12  2010    47    2     303.8    293.3    1.50    293.3     689.9     464.9     402.9     299.5     288.2     225.0
    18    12  2010    48    2     302.1    291.6    1.50    291.5     689.9     464.9     402.0     298.9     287.7     225.0
    19    12  2010    49    2     309.8    299.3    1.50    299.3     689.9     464.9     402.0     298.9     287.7     225.0
    20    12  2010    50    2     306.4    295.9    1.50    295.8     689.9     464.9     402.0     298.9     287.7     225.0
    21    12  2010    51    2     303.1    292.6    1.50    292.5     689.9     464.9     401.2     298.3     287.1     225.0
    22    12  2010    52    2     300.2    289.7    1.50    289.7     689.9     464.9     400.3     297.7     286.6     225.0
    23    12  2010    53    2     298.3    287.8    1.50    287.8     689.9     464.9     401.2     298.3     287.1     225.0
    24    12  2010    54    2     296.5    286.0    1.50    285.9     689.9     464.9     402.0     298.9     287.7     225.0
    25    12  2010    55    2     294.7    284.2    1.50    284.1     689.9     464.9     402.0     298.9     287.7     225.0
    26    12  2010    56    2     302.3    291.8    1.50    291.8     689.9     464.9     402.0     298.9     309.0     225.0
    27    12  2010    57    2     298.9    288.4    1.50    288.4     689.9     464.9     402.0     298.9     287.7     225.0
    28    12  2010    58    2     295.8    285.3    1.50    285.3     689.9     464.9     402.9     299.5     288.2     225.0
    29    12  2010    59    2     292.9    282.4    1.50    282.3     689.9     464.9     402.0     298.9     287.7     225.0
    30    12  2010    60    2     290.6    280.1    1.50    280.1     689.9     464.9     402.0     298.9     309.0     225.0
    31    12  2010    61    2     288.8    278.3    1.50    278.3     689.9     464.9     402.0     298.9     309.0     225.0
     1     1  2011    62    2     287.1    276.6    1.50    276.6     689.9     464.9     401.2     298.3     308.5     225.0
     2     1  2011    63    2     294.9    284.4    1.50    284.4     689.9     464.9     401.2     298.3     308.5     225.0
     3     1  2011    64    2     291.5    281.0    1.50    281.0     689.9     464.9     402.0     298.9     287.7     225.0
     4     1  2011    65    2     288.7    278.2    1.50    278.2     689.9     464.9     402.9     299.5     288.2     225.0
     5     1  2011    66    2     286.1    275.6    1.50    275.5     689.9     464.9     402.0     298.9     309.0     225.0
     6     1  2011    67    3     283.7    273.2    1.50    273.2     689.9     464.9     401.2     298.3     308.5     225.0
     7     1  2011    68    3     282.1    271.6    1.50    271.6     689.9     464.9     401.2     298.3     308.5     225.0
     8     1  2011    69    3     280.5    270.0    1.50    270.0     689.9     464.9     402.0     298.9     309.0     225.0
     9     1  2011    70    3     288.2    277.7    1.50    277.6     689.9     464.9     402.0     298.9     309.0     225.0
    10     1  2011    71    3     284.8    274.3    1.50    274.3     689.9     464.9     402.0     298.9     287.7     225.0
    11     1  2011    72    3     282.3    271.8    1.50    271.8     689.9     464.9     402.0     298.9     287.7     225.0
    12     1  2011    73    3     279.9    269.4    1.50    269.4     689.9     464.9     401.2     298.3     308.5     225.0
    13     1  2011    74    3     277.8    267.3    1.50    267.2     689.9     464.9     399.4     297.1     307.5     225.0
    14     1  2011    75    3     276.4    265.9    1.50    265.8     689.9     464.9     400.3     297.7     308.0     225.0
    15     1  2011    76    3     275.0    264.5    1.50    264.5     689.9     464.9     401.2     298.3     308.5     225.0
    16     1  2011    77    3     282.8    272.3    1.50    272.3     689.9     464.9     401.2     298.3     308.5     225.0
    17     1  2011    78    3     279.6    269.1    1.50    269.1     689.9     464.9     401.2     298.3     287.1     225.0
    18     1  2011    79    3     277.3    266.8    1.50    266.8     689.9     464.9     402.0     298.9     287.7     225.0
    19     1  2011    80    4     275.1    264.6    1.50    264.5     689.9     464.9     402.0     298.9     309.0     225.0
    20     1  2011    81    4     273.0    262.5    1.50    262.5     689.9     464.9     402.0     298.9     309.0     225.0
    21     1  2011    82    4     272.2    261.7    1.50    261.7     689.9     464.9     401.2     298.3     308.5     225.0
    22     1  2011    83    4     270.6    260.1    1.50    260.1     689.9     464.9     401.2     298.3     308.5     225.0
    23     1  2011    84    4     278.5    268.0    1.50    267.9     689.9     464.9     401.2     298.3     308.5     225.0
    24     1  2011    85    4     275.2    264.7    1.50    264.7     689.9     464.9     402.0     298.9     287.7     225.0
    25     1  2011    86    4     273.8    263.3    1.50    263.3     689.9     464.9     402.9     299.5     288.2     225.0
    26     1  2011    87    4     272.2    261.7    1.50    261.6     689.9     464.9     402.9     299.5     288.2     225.0
    27     1  2011    88    4     270.9    260.4    1.50    260.3     689.9     464.9     402.9     299.5     309.4     225.0
    28     1  2011    89    4     269.6    259.1    1.50    259.1     689.9     464.9     403.8     300.1     309.9     225.0
    29     1  2011    90    4     268.5    258.0    1.50    257.9     689.9     464.9     402.9     299.5     309.4     225.0
    30     1  2011    91    4     276.2    265.7    1.50    265.7     689.9     464.9     402.0     298.9     309.0     225.0
    31     1  2011    92    4     272.9    262.4    1.50    262.4     689.9     464.9     402.9     299.5     288.2     225.0
     1     2  2011    93    4     270.5    260.0    1.50    260.0     689.9     464.9     402.0     298.9     287.7     225.0
     2     2  2011    94    4     268.5    258.0    1.50    257.9     689.9     464.9     402.9     299.5     309.4     225.0
     3     2  2011    95    4     266.8    256.3    1.50    256.2     689.9     464.9     403.8     300.1     309.9     225.0
     4     2  2011    96    4     265.7    255.2    1.50    255.2     689.9     464.9     403.8     300.1     309.9     225.0
     5     2  2011    97    4     264.7    254.2    1.50    254.2     689.9     464.9     402.9     299.5     309.4     225.0
     6     2  2011    98    4     274.0    263.5    1.50    263.5     689.9     464.9     402.9     299.5     309.4     225.0
     7     2  2011    99    4     270.6    260.1    1.50    260.1     689.9     464.9     402.0     298.9     287.7     225.0
     8     2  2011   100    4     267.8    257.3    1.50    257.3     689.9     464.9     402.9     299.5     288.2     225.0
     9     2  2011   101    4     265.6    255.1    1.50    255.0     689.9     464.9     403.8     300.1     288.8     225.0
    10     2  2011   102    4     263.3    252.8    1.50    252.8     689.9     464.9     405.5     301.3     289.9     225.0
    11     2  2011   103    4     261.1    250.6    1.50    250.5     689.9     464.9     406.4     301.8     290.4     225.0
    12     2  2011   104    4     259.0    248.5    1.50    248.5     689.9     464.9     406.4     301.8     290.4     225.0
    13     2  2011   105    4     266.3    255.8    1.50    255.8     689.9     464.9     407.3     302.4     291.0     225.0
    14     2  2011   106    4     264.1    253.6    1.50    253.6     689.9     464.9     409.1     303.6     292.1     225.0
    15     2  2011   107    4     262.0    251.5    1.50    251.4     689.9     464.9     409.9     304.2     292.6     225.0
    16     2  2011   108    4     259.9    249.4    1.50    249.4     689.9     464.9     409.9     304.2     292.6     225.0
    17     2  2011   109    4     259.1    248.6    1.50    248.5     689.9     464.9     410.8     304.8     293.1     225.0
    18     2  2011   110    4     258.3    247.8    1.50    247.7     689.9     464.9     411.7     305.4     293.7     225.0
    19     2  2011   111    4     257.5    247.0    1.50    247.0     689.9     464.9     409.9     304.2     292.6     225.0
    20     2  2011   112    4     264.8    254.3    1.50    254.3     689.9     464.9     409.9     304.2     292.6     225.0
    21     2  2011   113    4     261.6    251.1    1.50    251.1     689.9     464.9     412.6     306.0     294.2     225.0
    22     2  2011   114    4     259.4    248.9    1.50    248.9     689.9     464.9     412.6     306.0     294.2     225.0
    23     2  2011   115    4     257.8    247.3    1.50    247.3     689.9     464.9     410.8     304.8     293.1     225.0
    24     2  2011   116    4     257.1    246.6    1.50    246.6     689.9     464.9     410.8     304.8     293.1     225.0
    25     2  2011   117    4     256.4    245.9    1.50    245.9     689.9     464.9     411.7     305.4     293.7     225.0
    26     2  2011   118    4     255.8    245.3    1.50    245.2     689.9     464.9     412.6     306.0     294.2     225.0
    27     2  2011   119    4     263.4    252.9    1.50    252.8     689.9     464.9     410.8     304.8     293.1     225.0
    28     2  2011   120    4     260.2    249.7    1.50    249.7     689.9     464.9     409.9     304.2     292.6     225.0
     1     3  2011   121    4     258.2    247.7    1.50    247.7     689.9     464.9     409.9     304.2     292.6     225.0
     2     3  2011   122    4     256.8    246.3    1.50    246.3     689.9     464.9     411.7     305.4     293.7     225.0
     3     3  2011   123    4     256.2    245.7    1.50    245.7     689.9     464.9     411.7     305.4     293.7     225.0
     4     3  2011   124    4     255.7    245.2    1.50    245.1     689.9     464.9     412.6     306.0     294.2     225.0
     5     3  2011   125    4     255.2    244.7    1.50    244.6     689.9     464.9     413.4     306.6     294.8     225.0
     6     3  2011   126    4     262.8    252.3    1.50    252.3     689.9     464.9     415.2     307.8     295.9     225.0
     7     3  2011   127    4     259.7    249.2    1.50    249.1     689.9     464.9     416.1     308.4     296.4     225.0
     8     3  2011   128    4     257.4    246.9    1.50    246.8     689.9     464.9     415.2     307.8     295.9     225.0
     9     3  2011   129    4     256.7    246.2    1.50    246.2     689.9     464.9     414.3     307.2     295.3     225.0
    10     3  2011   130    4     256.3    245.8    1.50    245.7     689.9     464.9     412.6     306.0     294.2     225.0
    11     3  2011   131    4     255.9    245.4    1.50    245.4     689.9     464.9     412.6     306.0     294.2     225.0
    12     3  2011   132    4     255.5    245.0    1.50    245.0     689.9     464.9     413.4     306.6     294.8     225.0
    13     3  2011   133    4     263.9    253.4    1.50    253.4     689.9     464.9     413.4     306.6     294.8     225.0
    14     3  2011   134    4     261.2    250.7    1.50    250.6     689.9     464.9     416.1     308.4     296.4     225.0
    15     3  2011   135    4     259.1    248.6    1.50    248.6     689.9     464.9     419.6     310.7     298.6     225.0
    16     3  2011   136    4     258.5    248.0    1.50    248.0     689.9     464.9     421.3     311.9     299.7     225.0
    17     3  2011   137    4     258.0    247.5    1.50    247.5     689.9     464.9     421.3     311.9     299.7     225.0
    18     3  2011   138    4     257.6    247.1    1.50    247.1     689.9     464.9     420.5     311.3     299.1     225.0
    19     3  2011   139    4     257.2    246.7    1.50    246.7     689.9     464.9     419.6     310.7     298.6     225.0
    20     3  2011   140    4     264.8    254.3    1.50    254.3     689.9     464.9     419.6     310.7     298.6     225.0
    21     3  2011   141    4     261.7    251.2    1.50    251.1     689.9     464.9     420.5     311.3     299.1     225.0
    22     3  2011    -9    0     260.9    250.4    1.50    250.4     689.9     464.9     420.5     311.3     299.1     225.0
    23     3  2011    -9    0     260.2    249.7    1.50    249.6     689.9     464.9     420.5     312.5     299.1     225.0
    24     3  2011    -9    0     259.5    249.0    1.50    249.0     689.9     464.9     420.5     313.1     299.1     225.0
    25     3  2011    -9    0     258.9    248.4    1.50    248.4     689.9     464.9     420.5     314.3     299.1     225.0

Legend

DAP          : Days after planting
Stage        : 0: before/after planting
Stage        : 1: emergence or transplant recovery
Stage        : 2: vegetative stage
Stage        : 3: flowering
Stage        : 4: yield formation and ripening
WCTot        : Water content in total soil profile (layer: 0.00 - 1.55 m)
Wr(Zx)       : Water content in maximum effective root zone (Zx = 1.50 m)
Z            : Effective rooting depth
Wr           : Water content in effective root zone
Wr(Sat)      : Water content in effective root zone if saturated
Wr(FC)       : Water content in effective root zone at field capacity
Wr(exp)      : Water content in effective root zone at upper threshold for leaf expansion
Wr(sto)      : Water content in effective root zone at upper threshold for stomatal closure
Wr(sen)      : Water content in effective root zone at upper threshold for early canopy senescence
Wr(PWP)      : Water content in effective root zone at permanent wilting point
