AquaCrop 7.1 (August 2023) - Output created on (date) : 28/11/2023   at (time) : 17:20:34
Soil Water balance

** Run number:  1
   Day Month  Year   DAP Stage     WCTot    Rain     Irri   Surf   Infilt   RO    Drain       CR    Zgwt       Ex       E     E/Ex    Trx       Tr  Tr/Trx    ETx      ET   ET/ETx
                                      mm      mm       mm     mm     mm     mm       mm       mm      m        mm       mm     %       mm       mm    %        mm      mm      %
     1    11  2010     1    1      323.9     0.0      0.0    0.0    0.0    0.0      0.0      0.0   -9.90      4.7      1.6    34      0.0      0.0   100      4.7     1.6     34
     2    11  2010     2    1      322.6     0.0      0.0    0.0    0.0    0.0      0.0      0.0   -9.90      4.6      1.3    27      0.0      0.0   100      4.6     1.3     27
     3    11  2010     3    1      321.6     0.0      0.0    0.0    0.0    0.0      0.0      0.0   -9.90      4.5      1.0    23      0.0      0.0   100      4.5     1.0     23
     4    11  2010     4    1      320.6     0.0      0.0    0.0    0.0    0.0      0.0      0.0   -9.90      4.1      0.8    19      0.3      0.2    96      4.4     1.0     24
     5    11  2010     5    2      319.6     0.0      0.0    0.0    0.0    0.0      0.0      0.0   -9.90      4.2      0.7    16      0.3      0.3    94      4.5     1.0     22
     6    11  2010     6    2      318.7     0.0      0.0    0.0    0.0    0.0      0.0      0.0   -9.90      4.3      0.6    14      0.3      0.3    92      4.6     0.9     19
     7    11  2010     7    2      325.9     0.0     11.0    0.0   11.0    0.0      0.0      0.0   -9.90      3.4      3.4   100      0.4      0.4   100      3.8     3.8    100
     8    11  2010     8    2      322.4     0.0      0.0    0.0    0.0    0.0      0.0      0.0   -9.90      3.4      3.1    92      0.4      0.4   100      3.8     3.5     92
     9    11  2010     9    2      321.3     0.0      0.0    0.0    0.0    0.0      0.0      0.0   -9.90      3.2      0.7    23      0.4      0.4   100      3.6     1.1     31
    10    11  2010    10    2      320.3     0.0      0.0    0.0    0.0    0.0      0.0      0.0   -9.90      3.1      0.6    19      0.4      0.4   100      3.5     1.0     28
    11    11  2010    11    2      319.5     0.0      0.0    0.0    0.0    0.0      0.0      0.0   -9.90      3.0      0.5    16      0.4      0.4   100      3.4     0.9     26
    12    11  2010    12    2      318.6     0.0      0.0    0.0    0.0    0.0      0.0      0.0   -9.90      3.0      0.4    14      0.4      0.4   100      3.4     0.8     24
    13    11  2010    13    2      317.9     0.0      0.0    0.0    0.0    0.0      0.0      0.0   -9.90      3.0      0.4    13      0.4      0.4   100      3.4     0.8     23
    14    11  2010    14    2      325.5     0.0     11.0    0.0   11.0    0.0      0.0      0.0   -9.90      2.9      2.9   100      0.4      0.4   100      3.3     3.3    100
    15    11  2010    15    2      322.1     0.0      0.0    0.0    0.0    0.0      0.0      0.0   -9.90      2.9      2.9   100      0.5      0.5   100      3.4     3.4    100
    16    11  2010    16    2      320.6     0.0      0.0    0.0    0.0    0.0      0.0      0.0   -9.90      3.0      1.0    33      0.5      0.5   100      3.5     1.5     43
    17    11  2010    17    2      319.5     0.0      0.0    0.0    0.0    0.0      0.0      0.0   -9.90      3.0      0.5    18      0.5      0.5   100      3.5     1.1     31
    18    11  2010    18    2      318.5     0.0      0.0    0.0    0.0    0.0      0.0      0.0   -9.90      3.0      0.5    15      0.6      0.6   100      3.5     1.0     29
    19    11  2010    19    2      317.6     0.0      0.0    0.0    0.0    0.0      0.0      0.0   -9.90      2.9      0.4    13      0.6      0.6   100      3.5     0.9     27
    20    11  2010    20    2      316.7     0.0      0.0    0.0    0.0    0.0      0.0      0.0   -9.90      2.8      0.3    12      0.6      0.6   100      3.4     0.9     26
    21    11  2010    21    2      324.4     0.0     11.0    0.0   11.0    0.0      0.0      0.0   -9.90      2.7      2.7   100      0.6      0.6   100      3.3     3.3    100
    22    11  2010    22    2      321.0     0.0      0.0    0.0    0.0    0.0      0.0      0.0   -9.90      2.7      2.7   100      0.7      0.7   100      3.3     3.3    100
    23    11  2010    23    2      319.2     0.0      0.0    0.0    0.0    0.0      0.0      0.0   -9.90      2.7      1.1    42      0.7      0.7   100      3.4     1.8     54
    24    11  2010    24    2      318.1     0.0      0.0    0.0    0.0    0.0      0.0      0.0   -9.90      2.5      0.4    16      0.7      0.7   100      3.2     1.1     35
    25    11  2010    25    2      317.0     0.0      0.0    0.0    0.0    0.0      0.0      0.0   -9.90      2.5      0.3    13      0.8      0.8   100      3.2     1.1     34
    26    11  2010    26    2      316.0     0.0      0.0    0.0    0.0    0.0      0.0      0.0   -9.90      2.5      0.3    11      0.8      0.8   100      3.2     1.0     32
    27    11  2010    27    2      314.9     0.0      0.0    0.0    0.0    0.0      0.0      0.0   -9.90      2.4      0.2    10      0.8      0.8   100      3.2     1.0     32
    28    11  2010    28    2      322.6     0.0     11.0    0.0   11.0    0.0      0.0      0.0   -9.90      2.4      2.4   100      0.9      0.9   100      3.3     3.3    100
    29    11  2010    29    2      319.1     0.0      0.0    0.0    0.0    0.0      0.0      0.0   -9.90      2.4      2.4   100      1.0      1.0   100      3.4     3.4    100
    30    11  2010    30    2      316.8     0.0      0.0    0.0    0.0    0.0      0.0      0.0   -9.90      2.4      1.3    54      1.0      1.0   100      3.4     2.3     68
     1    12  2010    31    2      315.4     0.0      0.0    0.0    0.0    0.0      0.0      0.0   -9.90      2.4      0.3    12      1.1      1.1   100      3.6     1.4     40
     2    12  2010    32    2      314.0     0.0      0.0    0.0    0.0    0.0      0.0      0.0   -9.90      2.3      0.2    10      1.1      1.1   100      3.5     1.4     39
     3    12  2010    33    2      312.6     0.0      0.0    0.0    0.0    0.0      0.0      0.0   -9.90      2.4      0.2     8      1.2      1.2   100      3.6     1.4     38
     4    12  2010    34    2      311.3     0.0      0.0    0.0    0.0    0.0      0.0      0.0   -9.90      2.3      0.2     7      1.1      1.1   100      3.5     1.3     37
     5    12  2010    35    2      318.8     0.0     11.0    0.0   11.0    0.0      0.0      0.0   -9.90      2.2      2.2   100      1.3      1.3   100      3.5     3.5    100
     6    12  2010    36    2      317.1     1.5      0.0    0.0    1.5    0.0      0.0      0.0   -9.90      2.6      1.8    68      1.4      1.4   100      4.1     3.2     79
     7    12  2010    37    2      315.2     0.0      0.0    0.0    0.0    0.0      0.0      0.0   -9.90      2.4      0.5    19      1.4      1.4   100      3.8     1.9     49
     8    12  2010    38    2      313.5     0.0      0.0    0.0    0.0    0.0      0.0      0.0   -9.90      2.3      0.3    14      1.4      1.4   100      3.7     1.7     46
     9    12  2010    39    2      311.9     0.0      0.0    0.0    0.0    0.0      0.0      0.0   -9.90      2.2      0.2    10      1.4      1.4   100      3.6     1.6     45
    10    12  2010    40    2      310.3     0.0      0.0    0.0    0.0    0.0      0.0      0.0   -9.90      2.1      0.2     8      1.4      1.4   100      3.5     1.5     44
    11    12  2010    41    2      308.8     0.0      0.0    0.0    0.0    0.0      0.0      0.0   -9.90      2.1      0.2     7      1.4      1.4   100      3.5     1.5     44
    12    12  2010    42    2      316.6     0.0     11.0    0.0   11.0    0.0      0.0      0.0   -9.90      1.6      1.6   100      1.6      1.6   100      3.2     3.2    100
    13    12  2010    43    2      313.2     0.0      0.0    0.0    0.0    0.0      0.0      0.0   -9.90      1.6      1.6   100      1.7      1.7   100      3.4     3.4    100
    14    12  2010    44    2      309.8     0.0      0.0    0.0    0.0    0.0      0.0      0.0   -9.90      1.6      1.6   100      1.8      1.8   100      3.4     3.4    100
    15    12  2010    45    2      307.5     0.0      0.0    0.0    0.0    0.0      0.0      0.0   -9.90      1.6      0.6    37      1.8      1.8    99      3.4     2.4     69
    16    12  2010    46    2      305.6     0.0      0.0    0.0    0.0    0.0      0.0      0.0   -9.90      1.5      0.1     8      1.8      1.7    96      3.3     1.9     55
    17    12  2010    47    2      303.8     0.0      0.0    0.0    0.0    0.0      0.0      0.0   -9.90      1.5      0.1     8      1.8      1.7    94      3.3     1.8     54
    18    12  2010    48    2      302.1     0.0      0.0    0.0    0.0    0.0      0.0      0.0   -9.90      1.5      0.1     7      1.7      1.6    92      3.2     1.7     53
    19    12  2010    49    2      309.8     0.0     11.0    0.0   11.0    0.0      0.0      0.0   -9.90      1.3      1.3   100      1.9      1.9   100      3.3     3.3    100
    20    12  2010    50    2      306.4     0.0      0.0    0.0    0.0    0.0      0.0      0.0   -9.90      1.3      1.3   100      2.1      2.1   100      3.4     3.4    100
    21    12  2010    51    2      303.1     0.0      0.0    0.0    0.0    0.0      0.0      0.0   -9.90      1.3      1.3   100      2.0      1.9    95      3.4     3.3     97
    22    12  2010    52    2      300.2     0.0      0.0    0.0    0.0    0.0      0.0      0.0   -9.90      1.3      1.1    80      2.0      1.8    91      3.3     2.9     87
    23    12  2010    53    2      298.3     0.0      0.0    0.0    0.0    0.0      0.0      0.0   -9.90      1.2      0.1     7      2.0      1.8    88      3.2     1.9     58
    24    12  2010    54    2      296.5     0.0      0.0    0.0    0.0    0.0      0.0      0.0   -9.90      1.2      0.1     7      2.1      1.8    85      3.3     1.9     56
    25    12  2010    55    2      294.7     0.0      0.0    0.0    0.0    0.0      0.0      0.0   -9.90      1.2      0.1     7      2.1      1.7    82      3.3     1.8     55
    26    12  2010    56    2      302.3     0.0     11.0    0.0   11.0    0.0      0.0      0.0   -9.90      1.1      1.1   100      2.2      2.2   100      3.3     3.3    100
    27    12  2010    57    2      298.9     0.0      0.0    0.0    0.0    0.0      0.0      0.0   -9.90      1.1      1.1   100      2.3      2.3   100      3.4     3.4    100
    28    12  2010    58    2      295.8     0.0      0.0    0.0    0.0    0.0      0.0      0.0   -9.90      1.1      1.1   100      2.4      2.0    84      3.5     3.1     89
    29    12  2010    59    2      292.9     0.0      0.0    0.0    0.0    0.0      0.0      0.0   -9.90      1.1      1.1   100      2.3      1.9    80      3.4     3.0     87
    30    12  2010    60    2      290.6     0.0      0.0    0.0    0.0    0.0      0.0      0.0   -9.90      1.1      0.4    39      2.3      1.8    77      3.4     2.2     65
    31    12  2010    61    2      288.8     0.0      0.0    0.0    0.0    0.0      0.0      0.0   -9.90      1.0      0.1     6      2.3      1.7    75      3.3     1.8     54
     1     1  2011    62    2      287.1     0.0      0.0    0.0    0.0    0.0      0.0      0.0   -9.90      1.0      0.1     6      2.2      1.6    73      3.2     1.7     52
     2     1  2011    63    2      294.9     0.0     11.0    0.0   11.0    0.0      0.0      0.0   -9.90      0.9      0.9   100      2.3      2.3   100      3.3     3.3    100
     3     1  2011    64    2      291.5     0.0      0.0    0.0    0.0    0.0      0.0      0.0   -9.90      0.9      0.9   100      2.4      2.4   100      3.4     3.4    100
     4     1  2011    65    2      288.7     0.0      0.0    0.0    0.0    0.0      0.0      0.0   -9.90      0.9      0.9   100      2.5      1.9    74      3.5     2.8     81
     5     1  2011    66    2      286.1     0.0      0.0    0.0    0.0    0.0      0.0      0.0   -9.90      0.9      0.9   100      2.4      1.7    71      3.4     2.7     79
     6     1  2011    67    3      283.7     0.0      0.0    0.0    0.0    0.0      0.0      0.0   -9.90      0.9      0.8    81      2.4      1.6    68      3.3     2.4     72
     7     1  2011    68    3      282.1     0.0      0.0    0.0    0.0    0.0      0.0      0.0   -9.90      0.9      0.1     6      2.3      1.5    66      3.2     1.6     49
     8     1  2011    69    3      280.5     0.0      0.0    0.0    0.0    0.0      0.0      0.0   -9.90      0.9      0.1     6      2.4      1.5    63      3.3     1.6     47
     9     1  2011    70    3      288.2     0.0     11.0    0.0   11.0    0.0      0.0      0.0   -9.90      0.9      0.9   100      2.5      2.5   100      3.4     3.4    100
    10     1  2011    71    3      284.8     0.0      0.0    0.0    0.0    0.0      0.0      0.0   -9.90      0.9      0.9   100      2.5      2.5   100      3.4     3.4    100
    11     1  2011    72    3      282.3     0.0      0.0    0.0    0.0    0.0      0.0      0.0   -9.90      0.9      0.9   100      2.4      1.6    66      3.3     2.5     75
    12     1  2011    73    3      279.9     0.0      0.0    0.0    0.0    0.0      0.0      0.0   -9.90      0.9      0.9   100      2.4      1.5    63      3.3     2.4     73
    13     1  2011    74    3      277.8     0.0      0.0    0.0    0.0    0.0      0.0      0.0   -9.90      0.9      0.8    92      2.2      1.3    61      3.1     2.2     70
    14     1  2011    75    3      276.4     0.0      0.0    0.0    0.0    0.0      0.0      0.0   -9.90      0.9      0.1     6      2.3      1.3    58      3.1     1.4     44
    15     1  2011    76    3      275.0     0.0      0.0    0.0    0.0    0.0      0.0      0.0   -9.90      0.9      0.1     6      2.3      1.3    56      3.2     1.4     42
    16     1  2011    77    3      282.8     0.0     11.0    0.0   11.0    0.0      0.0      0.0   -9.90      0.9      0.9   100      2.3      2.3   100      3.2     3.2    100
    17     1  2011    78    3      279.6     0.0      0.0    0.0    0.0    0.0      0.0      0.0   -9.90      0.9      0.9   100      2.3      2.3   100      3.2     3.2    100
    18     1  2011    79    3      277.3     0.0      0.0    0.0    0.0    0.0      0.0      0.0   -9.90      0.9      0.9   100      2.4      1.4    59      3.3     2.3     70
    19     1  2011    80    4      275.1     0.0      0.0    0.0    0.0    0.0      0.0      0.0   -9.90      0.9      0.9   100      2.4      1.3    55      3.3     2.2     68
    20     1  2011    81    4      273.0     0.0      0.0    0.0    0.0    0.0      0.0      0.0   -9.90      0.9      0.8    90      2.4      1.2    53      3.3     2.1     63
    21     1  2011    82    4      272.2     1.5      0.0    0.0    1.5    0.0      0.0      0.0   -9.90      1.1      1.1   100      2.3      1.2    52      3.4     2.3     68
    22     1  2011    83    4      270.6     0.0      0.0    0.0    0.0    0.0      0.0      0.0   -9.90      1.1      0.4    38      2.3      1.1    50      3.4     1.6     46
    23     1  2011    84    4      278.5     0.0     11.0    0.0   11.0    0.0      0.0      0.0   -9.90      0.9      0.9   100      2.3      2.3   100      3.2     3.2    100
    24     1  2011    85    4      275.2     0.0      0.0    0.0    0.0    0.0      0.0      0.0   -9.90      0.9      0.9   100      2.3      2.3   100      3.3     3.3    100
    25     1  2011    86    4      273.8     1.5      0.0    0.0    1.5    0.0      0.0      0.0   -9.90      1.2      1.2   100      2.4      1.7    72      3.6     2.9     81
    26     1  2011    87    4      272.2     0.0      0.0    0.0    0.0    0.0      0.0      0.0   -9.90      1.2      0.4    34      2.4      1.2    51      3.6     1.6     45
    27     1  2011    88    4      270.9     0.0      0.0    0.0    0.0    0.0      0.0      0.0   -9.90      1.2      0.1     9      2.4      1.2    49      3.6     1.3     36
    28     1  2011    89    4      269.6     0.0      0.0    0.0    0.0    0.0      0.0      0.0   -9.90      1.2      0.1     8      2.4      1.1    47      3.7     1.2     34
    29     1  2011    90    4      268.5     0.0      0.0    0.0    0.0    0.0      0.0      0.0   -9.90      1.2      0.1     8      2.4      1.1    46      3.6     1.2     33
    30     1  2011    91    4      276.2     0.0     11.0    0.0   11.0    0.0      0.0      0.0   -9.90      0.9      0.9   100      2.3      2.3   100      3.2     3.2    100
    31     1  2011    92    4      272.9     0.0      0.0    0.0    0.0    0.0      0.0      0.0   -9.90      1.0      1.0   100      2.3      2.3   100      3.3     3.3    100
     1     2  2011    93    4      270.5     0.0      0.0    0.0    0.0    0.0      0.0      0.0   -9.90      1.0      1.0   100      2.3      1.4    63      3.2     2.4     74
     2     2  2011    94    4      268.5     0.0      0.0    0.0    0.0    0.0      0.0      0.0   -9.90      1.0      1.0   100      2.3      1.1    46      3.3     2.0     62
     3     2  2011    95    4      266.8     0.0      0.0    0.0    0.0    0.0      0.0      0.0   -9.90      1.0      0.7    68      2.4      1.0    43      3.4     1.7     51
     4     2  2011    96    4      265.7     0.0      0.0    0.0    0.0    0.0      0.0      0.0   -9.90      1.0      0.1     7      2.4      1.0    42      3.4     1.1     31
     5     2  2011    97    4      264.7     0.0      0.0    0.0    0.0    0.0      0.0      0.0   -9.90      1.0      0.1     7      2.3      0.9    41      3.3     1.0     30
     6     2  2011    98    4      274.0     1.8     11.0    0.0   12.8    0.0      0.0      0.0   -9.90      1.2      1.2   100      2.3      2.3   100      3.5     3.5    100
     7     2  2011    99    4      270.6     0.0      0.0    0.0    0.0    0.0      0.0      0.0   -9.90      1.2      1.2   100      2.2      2.2   100      3.4     3.4    100
     8     2  2011   100    4      267.8     0.0      0.0    0.0    0.0    0.0      0.0      0.0   -9.90      1.2      1.2   100      2.2      1.6    70      3.5     2.8     81
     9     2  2011   101    4      265.6     0.0      0.0    0.0    0.0    0.0      0.0      0.0   -9.90      1.3      1.3   100      2.3      0.9    41      3.6     2.2     63
    10     2  2011   102    4      263.3     0.0      0.0    0.0    0.0    0.0      0.0      0.0   -9.90      1.4      1.4   100      2.4      0.9    38      3.8     2.3     60
    11     2  2011   103    4      261.1     0.0      0.0    0.0    0.0    0.0      0.0      0.0   -9.90      1.4      1.4   100      2.4      0.8    34      3.8     2.2     59
    12     2  2011   104    4      259.0     0.0      0.0    0.0    0.0    0.0      0.0      0.0   -9.90      1.4      1.3    89      2.4      0.8    32      3.8     2.0     53
    13     2  2011   105    4      266.3     0.0     11.0    0.0   11.0    0.0      0.0      0.0   -9.90      1.3      1.3   100      2.4      2.4   100      3.7     3.7    100
    14     2  2011   106    4      264.1     0.0      0.0    0.0    0.0    0.0      0.0      0.0   -9.90      1.3      1.3   100      2.5      1.0    38      3.8     2.2     58
    15     2  2011   107    4      262.0     0.0      0.0    0.0    0.0    0.0      0.0      0.0   -9.90      1.3      1.3   100      2.6      0.9    35      3.8     2.2     56
    16     2  2011   108    4      259.9     0.0      0.0    0.0    0.0    0.0      0.0      0.0   -9.90      1.3      1.2    95      2.5      0.8    32      3.8     2.0     53
    17     2  2011   109    4      259.1     0.0      0.0    0.0    0.0    0.0      0.0      0.0   -9.90      1.3      0.1     6      2.5      0.8    31      3.9     0.9     22
    18     2  2011   110    4      258.3     0.0      0.0    0.0    0.0    0.0      0.0      0.0   -9.90      1.4      0.1     6      2.6      0.7    29      3.9     0.8     21
    19     2  2011   111    4      257.5     0.0      0.0    0.0    0.0    0.0      0.0      0.0   -9.90      1.3      0.1     6      2.4      0.7    29      3.7     0.8     21
    20     2  2011   112    4      264.8     0.0     11.0    0.0   11.0    0.0      0.0      0.0   -9.90      1.3      1.3   100      2.3      2.3   100      3.7     3.7    100
    21     2  2011   113    4      261.6     0.0      0.0    0.0    0.0    0.0      0.0      0.0   -9.90      1.4      1.4   100      2.5      1.8    72      3.9     3.2     83
    22     2  2011   114    4      259.4     0.0      0.0    0.0    0.0    0.0      0.0      0.0   -9.90      1.4      1.4   100      2.4      0.7    31      3.8     2.2     57
    23     2  2011   115    4      257.8     0.0      0.0    0.0    0.0    0.0      0.0      0.0   -9.90      1.4      1.0    68      2.2      0.6    29      3.7     1.6     44
    24     2  2011   116    4      257.1     0.0      0.0    0.0    0.0    0.0      0.0      0.0   -9.90      1.4      0.1     7      2.2      0.6    28      3.6     0.7     20
    25     2  2011   117    4      256.4     0.0      0.0    0.0    0.0    0.0      0.0      0.0   -9.90      1.4      0.1     7      2.2      0.6    27      3.6     0.7     19
    26     2  2011   118    4      255.8     0.0      0.0    0.0    0.0    0.0      0.0      0.0   -9.90      1.5      0.1     6      2.1      0.6    26      3.6     0.6     18
    27     2  2011   119    4      263.4     0.0     11.0    0.0   11.0    0.0      0.0      0.0   -9.90      1.4      1.4   100      2.0      2.0   100      3.4     3.4    100
    28     2  2011   120    4      260.2     0.0      0.0    0.0    0.0    0.0      0.0      0.0   -9.90      1.4      1.4   100      1.9      1.7    91      3.3     3.1     95
     1     3  2011   121    4      258.2     0.0      0.0    0.0    0.0    0.0      0.0      0.0   -9.90      1.4      1.4   100      1.8      0.6    32      3.2     2.0     62
     2     3  2011   122    4      256.8     0.0      0.0    0.0    0.0    0.0      0.0      0.0   -9.90      1.5      0.9    60      1.8      0.5    27      3.3     1.4     42
     3     3  2011   123    4      256.2     0.0      0.0    0.0    0.0    0.0      0.0      0.0   -9.90      1.6      0.1     8      1.7      0.5    26      3.3     0.6     18
     4     3  2011   124    4      255.7     0.0      0.0    0.0    0.0    0.0      0.0      0.0   -9.90      1.6      0.1     8      1.7      0.4    26      3.3     0.5     17
     5     3  2011   125    4      255.2     0.0      0.0    0.0    0.0    0.0      0.0      0.0   -9.90      1.7      0.1     8      1.6      0.4    25      3.3     0.5     16
     6     3  2011   126    4      262.8     0.0     11.0    0.0   11.0    0.0      0.0      0.0   -9.90      1.8      1.8   100      1.6      1.6   100      3.3     3.3    100
     7     3  2011   127    4      259.7     0.0      0.0    0.0    0.0    0.0      0.0      0.0   -9.90      1.8      1.8   100      1.5      1.4    94      3.3     3.2     97
     8     3  2011   128    4      257.4     0.0      0.0    0.0    0.0    0.0      0.0      0.0   -9.90      1.8      1.8   100      1.3      0.5    37      3.1     2.3     73
     9     3  2011   129    4      256.7     0.0      0.0    0.0    0.0    0.0      0.0      0.0   -9.90      1.8      0.3    18      1.2      0.3    26      3.0     0.6     21
    10     3  2011   130    4      256.3     0.0      0.0    0.0    0.0    0.0      0.0      0.0   -9.90      1.8      0.2    10      1.0      0.3    26      2.7     0.4     16
    11     3  2011   131    4      255.9     0.0      0.0    0.0    0.0    0.0      0.0      0.0   -9.90      1.8      0.2     9      0.9      0.2    26      2.6     0.4     15
    12     3  2011   132    4      255.5     0.0      0.0    0.0    0.0    0.0      0.0      0.0   -9.90      1.9      0.2     8      0.8      0.2    25      2.7     0.4     13
    13     3  2011   133    4      263.9     0.0     11.0    0.0   11.0    0.0      0.0      0.0   -9.90      2.0      2.0   100      0.6      0.6   100      2.6     2.6    100
    14     3  2011   134    4      261.2     0.0      0.0    0.0    0.0    0.0      0.0      0.0   -9.90      2.2      2.2   100      0.6      0.6   100      2.8     2.8    100
    15     3  2011   135    4      259.1     0.0      0.0    0.0    0.0    0.0      0.0      0.0   -9.90      2.5      1.7    70      0.5      0.3    66      3.0     2.1     69
    16     3  2011   136    4      258.5     0.0      0.0    0.0    0.0    0.0      0.0      0.0   -9.90      2.7      0.4    15      0.3      0.2    53      3.1     0.6     19
    17     3  2011   137    4      258.0     0.0      0.0    0.0    0.0    0.0      0.0      0.0   -9.90      2.9      0.4    14      0.2      0.1    43      3.1     0.5     16
    18     3  2011   138    4      257.6     0.0      0.0    0.0    0.0    0.0      0.0      0.0   -9.90      3.0      0.4    13      0.1      0.0    35      3.1     0.4     13
    19     3  2011   139    4      257.2     0.0      0.0    0.0    0.0    0.0      0.0      0.0   -9.90      3.2      0.4    12      0.0      0.0    28      3.2     0.4     12
    20     3  2011   140    4      264.8     0.0     11.0    0.0   11.0    0.0      0.0      0.0   -9.90      3.4      3.4   100      0.0      0.0   100      3.4     3.4    100
    21     3  2011   141    4      261.7     0.0      0.0    0.0    0.0    0.0      0.0      0.0   -9.90      3.4      3.2    91      0.0      0.0   100      3.4     3.2     91
    22     3  2011    -9    0      260.9     0.0      0.0    0.0    0.0    0.0      0.0      0.0   -9.90      3.4      0.8    23      0.0      0.0   100      3.4     0.8     23
    23     3  2011    -9    0      260.2     0.0      0.0    0.0    0.0    0.0      0.0      0.0   -9.90      3.6      0.7    20      0.0      0.0   100      3.6     0.7     20
    24     3  2011    -9    0      259.5     0.0      0.0    0.0    0.0    0.0      0.0      0.0   -9.90      3.6      0.7    18      0.0      0.0   100      3.6     0.7     18
    25     3  2011    -9    0      258.9     0.0      0.0    0.0    0.0    0.0      0.0      0.0   -9.90      3.8      0.6    16      0.0      0.0   100      3.8     0.6     16

Legend

DAP          : Days after planting
Stage        : 0: before/after planting
Stage        : 1: emergence or transplant recovery
Stage        : 2: vegetative stage
Stage        : 3: flowering
Stage        : 4: yield formation and ripening
WCTot        : Water content in total soil profile
Rain         : Rainfall
Irri         : Water applied by irrigation
Surf         : Stored water on soil surface between bunds
Infilt       : Infiltrated water in soil profile
RO           : Surface runoff
Drain        : Water drained out of the soil profile
CR           : Water moved upward by capillary rise
Zgwt         : Depth of the groundwater table (-9.90 if absent)
Ex           : Maximum soil evaporation
E            : Soil evaporation
E/Ex         : Relative soil evaporation (100 E/Ex)
Trx          : Maximum crop transpiration
Tr           : Total transpiration of crop and weeds
Tr/Trx       : Relative transpiration (100 Tr/Trx)
ETx          : Evapotranspiration maximale
ET           : Evapotranspiration
ET/ETx       : Evapotranspiration relative (100 ET/ETx)
