AquaCrop 7.1 (August 2023) - Output created on (date) : 28/11/2023   at (time) : 17:20:34
Climate input data

** Run number:  1
   Day Month  Year   DAP Stage     Rain       ETo      Tmin      Tavg      Tmax      CO2
                                    mm        mm        °C        °C        °C       ppm
     1    11  2010     1    1       0.0       4.3      21.6      28.4      35.1    390.74
     2    11  2010     2    1       0.0       4.2      20.0      26.9      33.9    390.74
     3    11  2010     3    1       0.0       4.1      18.7      25.8      32.8    390.74
     4    11  2010     4    1       0.0       4.0      17.6      24.8      32.0    390.74
     5    11  2010     5    2       0.0       4.1      17.5      25.0      32.5    390.74
     6    11  2010     6    2       0.0       4.2      17.7      25.4      33.1    390.74
     7    11  2010     7    2       0.0       4.2      17.9      25.6      33.4    390.74
     8    11  2010     8    2       0.0       4.1      17.9      25.4      33.0    390.74
     9    11  2010     9    2       0.0       4.0      18.4      25.6      32.9    390.74
    10    11  2010    10    2       0.0       3.9      18.5      25.6      32.6    390.74
    11    11  2010    11    2       0.0       3.8      18.6      25.4      32.3    390.74
    12    11  2010    12    2       0.0       3.8      19.0      25.8      32.6    390.74
    13    11  2010    13    2       0.0       3.8      18.3      25.3      32.2    390.74
    14    11  2010    14    2       0.0       3.7      17.4      24.4      31.3    390.74
    15    11  2010    15    2       0.0       3.7      17.4      24.4      31.5    390.74
    16    11  2010    16    2       0.0       3.9      17.5      24.9      32.2    390.74
    17    11  2010    17    2       0.0       3.9      18.0      25.4      32.9    390.74
    18    11  2010    18    2       0.0       3.9      18.5      25.8      33.1    390.74
    19    11  2010    19    2       0.0       3.8      18.3      25.5      32.7    390.74
    20    11  2010    20    2       0.0       3.7      17.5      24.7      31.9    390.74
    21    11  2010    21    2       0.0       3.6      17.0      23.9      30.8    390.74
    22    11  2010    22    2       0.0       3.5      15.8      22.9      29.9    390.74
    23    11  2010    23    2       0.0       3.5      15.2      22.4      29.6    390.74
    24    11  2010    24    2       0.0       3.5      15.3      22.5      29.7    390.74
    25    11  2010    25    2       0.0       3.5      14.8      22.2      29.6    390.74
    26    11  2010    26    2       0.0       3.5      14.4      21.9      29.4    390.74
    27    11  2010    27    2       0.0       3.5      14.3      21.8      29.3    390.74
    28    11  2010    28    2       0.0       3.6      14.5      22.2      29.9    390.74
    29    11  2010    29    2       0.0       3.6      14.7      22.4      30.2    390.74
    30    11  2010    30    2       0.0       3.5      15.1      22.5      29.9    390.74
     1    12  2010    31    2       0.0       3.8      16.8      24.5      32.3    390.74
     2    12  2010    32    2       0.0       3.7      16.9      24.6      32.2    390.74
     3    12  2010    33    2       0.0       3.8      17.3      25.0      32.6    390.74
     4    12  2010    34    2       0.0       3.7      17.4      24.9      32.4    390.74
     5    12  2010    35    2       0.0       3.7      17.7      25.2      32.7    390.74
     6    12  2010    36    2       1.5       3.7      18.1      25.4      32.6    390.74
     7    12  2010    37    2       0.0       3.5      17.8      24.9      31.9    390.74
     8    12  2010    38    2       0.0       3.4      16.6      23.6      30.7    390.74
     9    12  2010    39    2       0.0       3.3      16.0      22.9      29.9    390.74
    10    12  2010    40    2       0.0       3.2      16.0      22.8      29.5    390.74
    11    12  2010    41    2       0.0       3.2      15.2      22.0      28.9    390.74
    12    12  2010    42    2       0.0       3.3      14.7      21.9      29.0    390.74
    13    12  2010    43    2       0.0       3.3      13.8      21.4      28.9    390.74
    14    12  2010    44    2       0.0       3.4      12.5      20.6      28.6    390.74
    15    12  2010    45    2       0.0       3.4      13.0      21.0      29.0    390.74
    16    12  2010    46    2       0.0       3.4      14.8      22.4      29.9    390.74
    17    12  2010    47    2       0.0       3.4      16.3      23.5      30.6    390.74
    18    12  2010    48    2       0.0       3.3      16.3      23.3      30.2    390.74
    19    12  2010    49    2       0.0       3.3      15.0      22.2      29.4    390.74
    20    12  2010    50    2       0.0       3.3      14.8      22.0      29.2    390.74
    21    12  2010    51    2       0.0       3.2      13.7      20.9      28.0    390.74
    22    12  2010    52    2       0.0       3.1      11.5      19.1      26.6    390.74
    23    12  2010    53    2       0.0       3.2      11.2      19.0      26.9    390.74
    24    12  2010    54    2       0.0       3.3      13.2      20.9      28.5    390.74
    25    12  2010    55    2       0.0       3.3      14.1      21.5      28.9    390.74
    26    12  2010    56    2       0.0       3.3      14.0      21.4      28.9    390.74
    27    12  2010    57    2       0.0       3.3      13.9      21.4      28.9    390.74
    28    12  2010    58    2       0.0       3.4      14.5      21.9      29.3    390.74
    29    12  2010    59    2       0.0       3.3      13.5      20.9      28.3    390.74
    30    12  2010    60    2       0.0       3.3      12.7      20.3      27.9    390.74
    31    12  2010    61    2       0.0       3.3      13.2      20.7      28.2    390.74
     1     1  2011    62    2       0.0       3.2      11.9      19.4      26.8    390.74
     2     1  2011    63    2       0.0       3.2      11.8      19.5      27.2    390.74
     3     1  2011    64    2       0.0       3.3      12.6      20.3      28.0    390.74
     4     1  2011    65    2       0.0       3.4      13.4      21.0      28.6    390.74
     5     1  2011    66    2       0.0       3.3      12.3      19.9      27.5    390.74
     6     1  2011    67    3       0.0       3.2      10.9      18.7      26.5    390.74
     7     1  2011    68    3       0.0       3.2      10.8      18.6      26.3    390.74
     8     1  2011    69    3       0.0       3.3      11.9      19.6      27.2    390.74
     9     1  2011    70    3       0.0       3.3      12.4      20.1      27.7    390.74
    10     1  2011    71    3       0.0       3.3      12.5      20.1      27.7    390.74
    11     1  2011    72    3       0.0       3.3      13.2      20.5      27.9    390.74
    12     1  2011    73    3       0.0       3.2      14.1      20.9      27.8    390.74
    13     1  2011    74    3       0.0       3.0      12.8      19.5      26.2    390.74
    14     1  2011    75    3       0.0       3.1      11.8      18.9      25.9    390.74
    15     1  2011    76    3       0.0       3.2      11.5      18.8      26.0    390.74
    16     1  2011    77    3       0.0       3.2      11.0      18.4      25.8    390.74
    17     1  2011    78    3       0.0       3.2      10.8      18.4      25.9    390.74
    18     1  2011    79    3       0.0       3.3      11.4      18.9      26.4    390.74
    19     1  2011    80    4       0.0       3.3      11.8      19.2      26.6    390.74
    20     1  2011    81    4       0.0       3.3      12.8      19.9      27.0    390.74
    21     1  2011    82    4       1.5       3.2      13.4      20.3      27.1    390.74
    22     1  2011    83    4       0.0       3.2      12.4      19.3      26.2    390.74
    23     1  2011    84    4       0.0       3.2      12.3      19.3      26.3    390.74
    24     1  2011    85    4       0.0       3.3      12.2      19.3      26.4    390.74
    25     1  2011    86    4       1.5       3.4      12.0      19.4      26.7    390.74
    26     1  2011    87    4       0.0       3.4      11.1      18.6      26.2    390.74
    27     1  2011    88    4       0.0       3.4      11.3      18.9      26.4    390.74
    28     1  2011    89    4       0.0       3.5      11.6      19.2      26.8    390.74
    29     1  2011    90    4       0.0       3.4      12.0      19.4      26.9    390.74
    30     1  2011    91    4       0.0       3.3      11.7      18.9      26.1    390.74
    31     1  2011    92    4       0.0       3.4      12.1      19.2      26.3    390.74
     1     2  2011    93    4       0.0       3.3      12.1      19.1      26.1    390.74
     2     2  2011    94    4       0.0       3.4      11.1      18.4      25.8    390.74
     3     2  2011    95    4       0.0       3.5      11.0      18.6      26.1    390.74
     4     2  2011    96    4       0.0       3.5      10.8      18.4      26.0    390.74
     5     2  2011    97    4       0.0       3.4      10.9      18.3      25.7    390.74
     6     2  2011    98    4       1.8       3.4      11.5      18.6      25.6    390.74
     7     2  2011    99    4       0.0       3.3      11.5      18.4      25.4    390.74
     8     2  2011   100    4       0.0       3.4      11.4      18.6      25.8    390.74
     9     2  2011   101    4       0.0       3.5      11.6      18.9      26.3    390.74
    10     2  2011   102    4       0.0       3.7      12.7      20.1      27.5    390.74
    11     2  2011   103    4       0.0       3.8      12.5      20.1      27.6    390.74
    12     2  2011   104    4       0.0       3.8      12.5      20.2      27.9    390.74
    13     2  2011   105    4       0.0       3.9      12.7      20.5      28.4    390.74
    14     2  2011   106    4       0.0       4.1      12.9      20.9      29.0    390.74
    15     2  2011   107    4       0.0       4.2      14.0      21.9      29.9    390.74
    16     2  2011   108    4       0.0       4.2      14.4      22.3      30.2    390.74
    17     2  2011   109    4       0.0       4.3      14.9      22.9      30.8    390.74
    18     2  2011   110    4       0.0       4.4      15.5      23.4      31.3    390.74
    19     2  2011   111    4       0.0       4.2      15.7      23.3      30.8    390.74
    20     2  2011   112    4       0.0       4.2      14.7      22.4      30.2    390.74
    21     2  2011   113    4       0.0       4.5      15.5      23.5      31.5    390.74
    22     2  2011   114    4       0.0       4.5      16.8      24.5      32.3    390.74
    23     2  2011   115    4       0.0       4.3      16.6      24.0      31.3    390.74
    24     2  2011   116    4       0.0       4.3      15.7      23.1      30.5    390.74
    25     2  2011   117    4       0.0       4.4      15.6      23.4      31.1    390.74
    26     2  2011   118    4       0.0       4.5      14.9      22.8      30.7    390.74
    27     2  2011   119    4       0.0       4.3      14.6      22.2      29.8    390.74
    28     2  2011   120    4       0.0       4.2      14.7      22.0      29.4    390.74
     1     3  2011   121    4       0.0       4.2      14.2      21.6      29.0    390.74
     2     3  2011   122    4       0.0       4.4      14.6      22.3      29.9    390.74
     3     3  2011   123    4       0.0       4.4      14.8      22.4      30.0    390.74
     4     3  2011   124    4       0.0       4.5      15.0      22.7      30.4    390.74
     5     3  2011   125    4       0.0       4.6      15.1      22.9      30.7    390.74
     6     3  2011   126    4       0.0       4.8      16.0      23.9      31.8    390.74
     7     3  2011   127    4       0.0       4.9      17.3      25.0      32.8    390.74
     8     3  2011   128    4       0.0       4.8      17.4      24.9      32.4    390.74
     9     3  2011   129    4       0.0       4.7      17.5      24.8      32.0    390.74
    10     3  2011   130    4       0.0       4.5      17.0      23.9      30.9    390.74
    11     3  2011   131    4       0.0       4.5      16.7      23.8      30.9    390.74
    12     3  2011   132    4       0.0       4.6      16.3      23.5      30.7    390.74
    13     3  2011   133    4       0.0       4.6      15.8      23.1      30.5    390.74
    14     3  2011   134    4       0.0       4.9      16.2      23.9      31.7    390.74
    15     3  2011   135    4       0.0       5.3      18.6      26.7      34.7    390.74
    16     3  2011   136    4       0.0       5.5      19.9      27.9      36.0    390.74
    17     3  2011   137    4       0.0       5.5      19.9      27.9      35.9    390.74
    18     3  2011   138    4       0.0       5.4      19.5      27.4      35.2    390.74
    19     3  2011   139    4       0.0       5.3      19.3      27.0      34.7    390.74
    20     3  2011   140    4       0.0       5.3      19.1      26.8      34.4    390.74
    21     3  2011   141    4       0.0       5.4      18.9      26.8      34.6    390.74
    22     3  2011    -9    0       0.0       5.4      18.9      26.8      34.7    390.74
    23     3  2011    -9    0       0.0       5.6      19.6      27.5      35.4    390.74
    24     3  2011    -9    0       0.0       5.7      20.2      28.2      36.2    390.74
    25     3  2011    -9    0       0.0       5.9      20.5      28.8      37.0    390.74

Legend

DAP          : Days after planting
Stage        : 0: before/after planting
Stage        : 1: emergence or transplant recovery
Stage        : 2: vegetative stage
Stage        : 3: flowering
Stage        : 4: yield formation and ripening
Rain         : Rainfall
ETo          : Reference evapotranspiration
Tmin         : Minimum air temperature
Tavg         : Average air temperature
Tmax         : Maximum air temperature
CO2          : Atmospheric CO2 concentration
