AquaCrop 7.1 (August 2023) - Output created on (date) : 28/11/2023   at (time) : 17:20:34
Biomass and Yield at Multiple cuttings

** Run number:  1
    Nr   Day  Month Year   DAP Interval  Biomass    Sum(B)   Dry-Yield  Sum(Y) Fresh-Yield  Sum(Y)
                                 days     ton/ha    ton/ha    ton/ha    ton/ha    ton/ha    ton/ha
     0     1    11  2010                             0.000               0.000
  9999    26     3  2011                             7.272               2.869

Legend

DAP          : Days after planting
Interval     : Number of days between events
Nr = 0       : At start of season
Nr = 1 to n  : Harvest event
Nr = 9999    : At end of season
