AquaCrop 7.1 (August 2023) - Output created on (date) : 28/11/2023   at (time) : 17:20:34
Soil salinity in soil profile and root zone

** Run number:  1   -- Salt balance for soil profile (Total layer: 0.00 - 1.55 m) and soil salinity in root zone (Z)
   Day Month  Year   DAP Stage   SaltIn    SaltOut   SaltUp    SaltTot    SaltZ     Z       ECe    ECsw   StSalt  Zgwt    ECgw
                                 ton/ha    ton/ha    ton/ha    ton/ha    ton/ha     m      dS/m    dS/m      %     m      dS/m
     1    11  2010     1    1     0.000     0.000     0.000     0.000     0.000    0.30    0.00    0.00      0   -9.90   -9.00
     2    11  2010     2    1     0.000     0.000     0.000     0.000     0.000    0.30    0.00    0.00      0   -9.90   -9.00
     3    11  2010     3    1     0.000     0.000     0.000     0.000     0.000    0.39    0.00    0.00      0   -9.90   -9.00
     4    11  2010     4    1     0.000     0.000     0.000     0.000     0.000    0.46    0.00    0.00      0   -9.90   -9.00
     5    11  2010     5    2     0.000     0.000     0.000     0.000     0.000    0.53    0.00    0.00      0   -9.90   -9.00
     6    11  2010     6    2     0.000     0.000     0.000     0.000     0.000    0.58    0.00    0.00      0   -9.90   -9.00
     7    11  2010     7    2     0.000     0.000     0.000     0.000     0.000    0.63    0.00    0.00      0   -9.90   -9.00
     8    11  2010     8    2     0.000     0.000     0.000     0.000     0.000    0.68    0.00    0.00      0   -9.90   -9.00
     9    11  2010     9    2     0.000     0.000     0.000     0.000     0.000    0.73    0.00    0.00      0   -9.90   -9.00
    10    11  2010    10    2     0.000     0.000     0.000     0.000     0.000    0.78    0.00    0.00      0   -9.90   -9.00
    11    11  2010    11    2     0.000     0.000     0.000     0.000     0.000    0.82    0.00    0.00      0   -9.90   -9.00
    12    11  2010    12    2     0.000     0.000     0.000     0.000     0.000    0.87    0.00    0.00      0   -9.90   -9.00
    13    11  2010    13    2     0.000     0.000     0.000     0.000     0.000    0.91    0.00    0.00      0   -9.90   -9.00
    14    11  2010    14    2     0.000     0.000     0.000     0.000     0.000    0.95    0.00    0.00      0   -9.90   -9.00
    15    11  2010    15    2     0.000     0.000     0.000     0.000     0.000    0.98    0.00    0.00      0   -9.90   -9.00
    16    11  2010    16    2     0.000     0.000     0.000     0.000     0.000    1.02    0.00    0.00      0   -9.90   -9.00
    17    11  2010    17    2     0.000     0.000     0.000     0.000     0.000    1.06    0.00    0.00      0   -9.90   -9.00
    18    11  2010    18    2     0.000     0.000     0.000     0.000     0.000    1.10    0.00    0.00      0   -9.90   -9.00
    19    11  2010    19    2     0.000     0.000     0.000     0.000     0.000    1.13    0.00    0.00      0   -9.90   -9.00
    20    11  2010    20    2     0.000     0.000     0.000     0.000     0.000    1.17    0.00    0.00      0   -9.90   -9.00
    21    11  2010    21    2     0.000     0.000     0.000     0.000     0.000    1.20    0.00    0.00      0   -9.90   -9.00
    22    11  2010    22    2     0.000     0.000     0.000     0.000     0.000    1.23    0.00    0.00      0   -9.90   -9.00
    23    11  2010    23    2     0.000     0.000     0.000     0.000     0.000    1.26    0.00    0.00      0   -9.90   -9.00
    24    11  2010    24    2     0.000     0.000     0.000     0.000     0.000    1.29    0.00    0.00      0   -9.90   -9.00
    25    11  2010    25    2     0.000     0.000     0.000     0.000     0.000    1.32    0.00    0.00      0   -9.90   -9.00
    26    11  2010    26    2     0.000     0.000     0.000     0.000     0.000    1.35    0.00    0.00      0   -9.90   -9.00
    27    11  2010    27    2     0.000     0.000     0.000     0.000     0.000    1.38    0.00    0.00      0   -9.90   -9.00
    28    11  2010    28    2     0.000     0.000     0.000     0.000     0.000    1.41    0.00    0.00      0   -9.90   -9.00
    29    11  2010    29    2     0.000     0.000     0.000     0.000     0.000    1.44    0.00    0.00      0   -9.90   -9.00
    30    11  2010    30    2     0.000     0.000     0.000     0.000     0.000    1.46    0.00    0.00      0   -9.90   -9.00
     1    12  2010    31    2     0.000     0.000     0.000     0.000     0.000    1.49    0.00    0.00      0   -9.90   -9.00
     2    12  2010    32    2     0.000     0.000     0.000     0.000     0.000    1.50    0.00    0.00      0   -9.90   -9.00
     3    12  2010    33    2     0.000     0.000     0.000     0.000     0.000    1.50    0.00    0.00      0   -9.90   -9.00
     4    12  2010    34    2     0.000     0.000     0.000     0.000     0.000    1.50    0.00    0.00      0   -9.90   -9.00
     5    12  2010    35    2     0.000     0.000     0.000     0.000     0.000    1.50    0.00    0.00      0   -9.90   -9.00
     6    12  2010    36    2     0.000     0.000     0.000     0.000     0.000    1.50    0.00    0.00      0   -9.90   -9.00
     7    12  2010    37    2     0.000     0.000     0.000     0.000     0.000    1.50    0.00    0.00      0   -9.90   -9.00
     8    12  2010    38    2     0.000     0.000     0.000     0.000     0.000    1.50    0.00    0.00      0   -9.90   -9.00
     9    12  2010    39    2     0.000     0.000     0.000     0.000     0.000    1.50    0.00    0.00      0   -9.90   -9.00
    10    12  2010    40    2     0.000     0.000     0.000     0.000     0.000    1.50    0.00    0.00      0   -9.90   -9.00
    11    12  2010    41    2     0.000     0.000     0.000     0.000     0.000    1.50    0.00    0.00      0   -9.90   -9.00
    12    12  2010    42    2     0.000     0.000     0.000     0.000     0.000    1.50    0.00    0.00      0   -9.90   -9.00
    13    12  2010    43    2     0.000     0.000     0.000     0.000     0.000    1.50    0.00    0.00      0   -9.90   -9.00
    14    12  2010    44    2     0.000     0.000     0.000     0.000     0.000    1.50    0.00    0.00      0   -9.90   -9.00
    15    12  2010    45    2     0.000     0.000     0.000     0.000     0.000    1.50    0.00    0.00      0   -9.90   -9.00
    16    12  2010    46    2     0.000     0.000     0.000     0.000     0.000    1.50    0.00    0.00      0   -9.90   -9.00
    17    12  2010    47    2     0.000     0.000     0.000     0.000     0.000    1.50    0.00    0.00      0   -9.90   -9.00
    18    12  2010    48    2     0.000     0.000     0.000     0.000     0.000    1.50    0.00    0.00      0   -9.90   -9.00
    19    12  2010    49    2     0.000     0.000     0.000     0.000     0.000    1.50    0.00    0.00      0   -9.90   -9.00
    20    12  2010    50    2     0.000     0.000     0.000     0.000     0.000    1.50    0.00    0.00      0   -9.90   -9.00
    21    12  2010    51    2     0.000     0.000     0.000     0.000     0.000    1.50    0.00    0.00      0   -9.90   -9.00
    22    12  2010    52    2     0.000     0.000     0.000     0.000     0.000    1.50    0.00    0.00      0   -9.90   -9.00
    23    12  2010    53    2     0.000     0.000     0.000     0.000     0.000    1.50    0.00    0.00      0   -9.90   -9.00
    24    12  2010    54    2     0.000     0.000     0.000     0.000     0.000    1.50    0.00    0.00      0   -9.90   -9.00
    25    12  2010    55    2     0.000     0.000     0.000     0.000     0.000    1.50    0.00    0.00      0   -9.90   -9.00
    26    12  2010    56    2     0.000     0.000     0.000     0.000     0.000    1.50    0.00    0.00      0   -9.90   -9.00
    27    12  2010    57    2     0.000     0.000     0.000     0.000     0.000    1.50    0.00    0.00      0   -9.90   -9.00
    28    12  2010    58    2     0.000     0.000     0.000     0.000     0.000    1.50    0.00    0.00      0   -9.90   -9.00
    29    12  2010    59    2     0.000     0.000     0.000     0.000     0.000    1.50    0.00    0.00      0   -9.90   -9.00
    30    12  2010    60    2     0.000     0.000     0.000     0.000     0.000    1.50    0.00    0.00      0   -9.90   -9.00
    31    12  2010    61    2     0.000     0.000     0.000     0.000     0.000    1.50    0.00    0.00      0   -9.90   -9.00
     1     1  2011    62    2     0.000     0.000     0.000     0.000     0.000    1.50    0.00    0.00      0   -9.90   -9.00
     2     1  2011    63    2     0.000     0.000     0.000     0.000     0.000    1.50    0.00    0.00      0   -9.90   -9.00
     3     1  2011    64    2     0.000     0.000     0.000     0.000     0.000    1.50    0.00    0.00      0   -9.90   -9.00
     4     1  2011    65    2     0.000     0.000     0.000     0.000     0.000    1.50    0.00    0.00      0   -9.90   -9.00
     5     1  2011    66    2     0.000     0.000     0.000     0.000     0.000    1.50    0.00    0.00      0   -9.90   -9.00
     6     1  2011    67    3     0.000     0.000     0.000     0.000     0.000    1.50    0.00    0.00      0   -9.90   -9.00
     7     1  2011    68    3     0.000     0.000     0.000     0.000     0.000    1.50    0.00    0.00      0   -9.90   -9.00
     8     1  2011    69    3     0.000     0.000     0.000     0.000     0.000    1.50    0.00    0.00      0   -9.90   -9.00
     9     1  2011    70    3     0.000     0.000     0.000     0.000     0.000    1.50    0.00    0.00      0   -9.90   -9.00
    10     1  2011    71    3     0.000     0.000     0.000     0.000     0.000    1.50    0.00    0.00      0   -9.90   -9.00
    11     1  2011    72    3     0.000     0.000     0.000     0.000     0.000    1.50    0.00    0.00      0   -9.90   -9.00
    12     1  2011    73    3     0.000     0.000     0.000     0.000     0.000    1.50    0.00    0.00      0   -9.90   -9.00
    13     1  2011    74    3     0.000     0.000     0.000     0.000     0.000    1.50    0.00    0.00      0   -9.90   -9.00
    14     1  2011    75    3     0.000     0.000     0.000     0.000     0.000    1.50    0.00    0.00      0   -9.90   -9.00
    15     1  2011    76    3     0.000     0.000     0.000     0.000     0.000    1.50    0.00    0.00      0   -9.90   -9.00
    16     1  2011    77    3     0.000     0.000     0.000     0.000     0.000    1.50    0.00    0.00      0   -9.90   -9.00
    17     1  2011    78    3     0.000     0.000     0.000     0.000     0.000    1.50    0.00    0.00      0   -9.90   -9.00
    18     1  2011    79    3     0.000     0.000     0.000     0.000     0.000    1.50    0.00    0.00      0   -9.90   -9.00
    19     1  2011    80    4     0.000     0.000     0.000     0.000     0.000    1.50    0.00    0.00      0   -9.90   -9.00
    20     1  2011    81    4     0.000     0.000     0.000     0.000     0.000    1.50    0.00    0.00      0   -9.90   -9.00
    21     1  2011    82    4     0.000     0.000     0.000     0.000     0.000    1.50    0.00    0.00      0   -9.90   -9.00
    22     1  2011    83    4     0.000     0.000     0.000     0.000     0.000    1.50    0.00    0.00      0   -9.90   -9.00
    23     1  2011    84    4     0.000     0.000     0.000     0.000     0.000    1.50    0.00    0.00      0   -9.90   -9.00
    24     1  2011    85    4     0.000     0.000     0.000     0.000     0.000    1.50    0.00    0.00      0   -9.90   -9.00
    25     1  2011    86    4     0.000     0.000     0.000     0.000     0.000    1.50    0.00    0.00      0   -9.90   -9.00
    26     1  2011    87    4     0.000     0.000     0.000     0.000     0.000    1.50    0.00    0.00      0   -9.90   -9.00
    27     1  2011    88    4     0.000     0.000     0.000     0.000     0.000    1.50    0.00    0.00      0   -9.90   -9.00
    28     1  2011    89    4     0.000     0.000     0.000     0.000     0.000    1.50    0.00    0.00      0   -9.90   -9.00
    29     1  2011    90    4     0.000     0.000     0.000     0.000     0.000    1.50    0.00    0.00      0   -9.90   -9.00
    30     1  2011    91    4     0.000     0.000     0.000     0.000     0.000    1.50    0.00    0.00      0   -9.90   -9.00
    31     1  2011    92    4     0.000     0.000     0.000     0.000     0.000    1.50    0.00    0.00      0   -9.90   -9.00
     1     2  2011    93    4     0.000     0.000     0.000     0.000     0.000    1.50    0.00    0.00      0   -9.90   -9.00
     2     2  2011    94    4     0.000     0.000     0.000     0.000     0.000    1.50    0.00    0.00      0   -9.90   -9.00
     3     2  2011    95    4     0.000     0.000     0.000     0.000     0.000    1.50    0.00    0.00      0   -9.90   -9.00
     4     2  2011    96    4     0.000     0.000     0.000     0.000     0.000    1.50    0.00    0.00      0   -9.90   -9.00
     5     2  2011    97    4     0.000     0.000     0.000     0.000     0.000    1.50    0.00    0.00      0   -9.90   -9.00
     6     2  2011    98    4     0.000     0.000     0.000     0.000     0.000    1.50    0.00    0.00      0   -9.90   -9.00
     7     2  2011    99    4     0.000     0.000     0.000     0.000     0.000    1.50    0.00    0.00      0   -9.90   -9.00
     8     2  2011   100    4     0.000     0.000     0.000     0.000     0.000    1.50    0.00    0.00      0   -9.90   -9.00
     9     2  2011   101    4     0.000     0.000     0.000     0.000     0.000    1.50    0.00    0.00      0   -9.90   -9.00
    10     2  2011   102    4     0.000     0.000     0.000     0.000     0.000    1.50    0.00    0.00      0   -9.90   -9.00
    11     2  2011   103    4     0.000     0.000     0.000     0.000     0.000    1.50    0.00    0.00      0   -9.90   -9.00
    12     2  2011   104    4     0.000     0.000     0.000     0.000     0.000    1.50    0.00    0.00      0   -9.90   -9.00
    13     2  2011   105    4     0.000     0.000     0.000     0.000     0.000    1.50    0.00    0.00      0   -9.90   -9.00
    14     2  2011   106    4     0.000     0.000     0.000     0.000     0.000    1.50    0.00    0.00      0   -9.90   -9.00
    15     2  2011   107    4     0.000     0.000     0.000     0.000     0.000    1.50    0.00    0.00      0   -9.90   -9.00
    16     2  2011   108    4     0.000     0.000     0.000     0.000     0.000    1.50    0.00    0.00      0   -9.90   -9.00
    17     2  2011   109    4     0.000     0.000     0.000     0.000     0.000    1.50    0.00    0.00      0   -9.90   -9.00
    18     2  2011   110    4     0.000     0.000     0.000     0.000     0.000    1.50    0.00    0.00      0   -9.90   -9.00
    19     2  2011   111    4     0.000     0.000     0.000     0.000     0.000    1.50    0.00    0.00      0   -9.90   -9.00
    20     2  2011   112    4     0.000     0.000     0.000     0.000     0.000    1.50    0.00    0.00      0   -9.90   -9.00
    21     2  2011   113    4     0.000     0.000     0.000     0.000     0.000    1.50    0.00    0.00      0   -9.90   -9.00
    22     2  2011   114    4     0.000     0.000     0.000     0.000     0.000    1.50    0.00    0.00      0   -9.90   -9.00
    23     2  2011   115    4     0.000     0.000     0.000     0.000     0.000    1.50    0.00    0.00      0   -9.90   -9.00
    24     2  2011   116    4     0.000     0.000     0.000     0.000     0.000    1.50    0.00    0.00      0   -9.90   -9.00
    25     2  2011   117    4     0.000     0.000     0.000     0.000     0.000    1.50    0.00    0.00      0   -9.90   -9.00
    26     2  2011   118    4     0.000     0.000     0.000     0.000     0.000    1.50    0.00    0.00      0   -9.90   -9.00
    27     2  2011   119    4     0.000     0.000     0.000     0.000     0.000    1.50    0.00    0.00      0   -9.90   -9.00
    28     2  2011   120    4     0.000     0.000     0.000     0.000     0.000    1.50    0.00    0.00      0   -9.90   -9.00
     1     3  2011   121    4     0.000     0.000     0.000     0.000     0.000    1.50    0.00    0.00      0   -9.90   -9.00
     2     3  2011   122    4     0.000     0.000     0.000     0.000     0.000    1.50    0.00    0.00      0   -9.90   -9.00
     3     3  2011   123    4     0.000     0.000     0.000     0.000     0.000    1.50    0.00    0.00      0   -9.90   -9.00
     4     3  2011   124    4     0.000     0.000     0.000     0.000     0.000    1.50    0.00    0.00      0   -9.90   -9.00
     5     3  2011   125    4     0.000     0.000     0.000     0.000     0.000    1.50    0.00    0.00      0   -9.90   -9.00
     6     3  2011   126    4     0.000     0.000     0.000     0.000     0.000    1.50    0.00    0.00      0   -9.90   -9.00
     7     3  2011   127    4     0.000     0.000     0.000     0.000     0.000    1.50    0.00    0.00      0   -9.90   -9.00
     8     3  2011   128    4     0.000     0.000     0.000     0.000     0.000    1.50    0.00    0.00      0   -9.90   -9.00
     9     3  2011   129    4     0.000     0.000     0.000     0.000     0.000    1.50    0.00    0.00      0   -9.90   -9.00
    10     3  2011   130    4     0.000     0.000     0.000     0.000     0.000    1.50    0.00    0.00      0   -9.90   -9.00
    11     3  2011   131    4     0.000     0.000     0.000     0.000     0.000    1.50    0.00    0.00      0   -9.90   -9.00
    12     3  2011   132    4     0.000     0.000     0.000     0.000     0.000    1.50    0.00    0.00      0   -9.90   -9.00
    13     3  2011   133    4     0.000     0.000     0.000     0.000     0.000    1.50    0.00    0.00      0   -9.90   -9.00
    14     3  2011   134    4     0.000     0.000     0.000     0.000     0.000    1.50    0.00    0.00      0   -9.90   -9.00
    15     3  2011   135    4     0.000     0.000     0.000     0.000     0.000    1.50    0.00    0.00      0   -9.90   -9.00
    16     3  2011   136    4     0.000     0.000     0.000     0.000     0.000    1.50    0.00    0.00      0   -9.90   -9.00
    17     3  2011   137    4     0.000     0.000     0.000     0.000     0.000    1.50    0.00    0.00      0   -9.90   -9.00
    18     3  2011   138    4     0.000     0.000     0.000     0.000     0.000    1.50    0.00    0.00      0   -9.90   -9.00
    19     3  2011   139    4     0.000     0.000     0.000     0.000     0.000    1.50    0.00    0.00      0   -9.90   -9.00
    20     3  2011   140    4     0.000     0.000     0.000     0.000     0.000    1.50    0.00    0.00      0   -9.90   -9.00
    21     3  2011   141    4     0.000     0.000     0.000     0.000     0.000    1.50    0.00    0.00      0   -9.90   -9.00
    22     3  2011    -9    0     0.000     0.000     0.000     0.000     0.000    1.50    0.00    0.00      0   -9.90   -9.00
    23     3  2011    -9    0     0.000     0.000     0.000     0.000     0.000    1.50    0.00    0.00      0   -9.90   -9.00
    24     3  2011    -9    0     0.000     0.000     0.000     0.000     0.000    1.50    0.00    0.00      0   -9.90   -9.00
    25     3  2011    -9    0     0.000     0.000     0.000     0.000     0.000    1.50    0.00    0.00      0   -9.90   -9.00

Legend

DAP          : Days after planting
Stage        : 0: before/after planting
Stage        : 1: emergence or transplant recovery
Stage        : 2: vegetative stage
Stage        : 3: flowering
Stage        : 4: yield formation and ripening
SaltIn       : Salt infiltrated in the soil profile
SaltOut      : Salt drained out of the soil profile
SaltUp       : Salt moved upward from the groundwater table
SaltTot      : Salt content in the total soil profile (layer: 0.00 - 1.55 m)
SaltZ        : Salt content in the effective root zone
Z            : Effective rooting depth
ECe          : Electrical conductivity of the saturated soil-paste extract from the root zone
ECsw         : Electrical conductivity of the soil water in the root zone
StSalt       : Salinity stress
Zgwt         : Depth of the groundwater table (-9.90 if absent)
ECgw         : Electrical conductivity of the groundwater
