AquaCrop 7.1 (August 2023) - Output created on (date) : 05-12-2023   at (time) : 09:36:19

    RunNr     Day1   Month1    Year1     Rain      ETo       GD     CO2      Irri   Infilt   Runoff    Drain   Upflow        E     E/Ex       Tr      TrW   Tr/Trx    SaltIn   SaltOut    SaltUp  SaltProf     Cycle   SaltStr  FertStr  WeedStr  TempStr   ExpStr   StoStr  BioMass  Brelative   HI    Y(dry)  Y(fresh)    WPet      Bin     Bout     DayN   MonthN    YearN
                                           mm       mm  degC.day    ppm        mm       mm       mm       mm       mm       mm        %       mm       mm        %    ton/ha    ton/ha    ton/ha    ton/ha      days       %        %        %        %        %        %    ton/ha        %       %    ton/ha   ton/ha    kg/m3   ton/ha   ton/ha
   Tot(1)        1       11     2010     23.7    549.5   2959.7   390.74    300.0    323.7      0.0      0.0      0.0    109.0       57    210.2    209.2       61     0.000     0.000     0.000     0.000      146        0        0        0        0       41       32    10.549       58     26.4    2.784   -9.900     0.91    0.000    0.000       13        4     2011  Wheat_Multan_1Nov_8d15mm_85.PRM
   Tot(2)        1       11     2011     24.3    582.0   2957.1   392.73    300.0    324.0      0.3      0.0      0.0    104.8       54    217.5    218.5       59     0.000     0.000     0.000     0.000      149        0        0        0        1       41       34    10.905       58     24.9    2.720   -9.900     0.88    0.000    0.000       15        4     2012  Wheat_Multan_1Nov_8d15mm_85.PRM
   Tot(3)        1       11     2012      8.8    576.0   2966.2   395.15    300.0    308.8      0.0      0.0      0.0     97.3       53    209.3    209.3       56     0.000     0.000     0.000     0.000      148        0        0        0        1       38       34    10.718       58     22.9    2.454   -9.900     0.84    0.000    0.000       15        4     2013  Wheat_Multan_1Nov_8d15mm_85.PRM
   Tot(4)        1       11     2013     60.5    567.4   2970.8   397.51    300.0    360.5      0.0      0.0      0.0    107.0       58    245.5    243.9       67     0.000     0.000     0.000     0.000      148        0        0        0        1       31       25    12.639       67     26.8    3.391   -9.900     1.00    0.000    0.000       15        4     2014  Wheat_Multan_1Nov_8d15mm_85.PRM
   Tot(5)        1       11     2014     28.0    575.4   2971.4   400.27    300.0    328.0      0.0      0.0      0.0    122.0       55    203.7    205.1       59     0.000     0.000     0.000     0.000      146        0        0        0        0       43       33    10.184       55     24.3    2.477   -9.900     0.79    0.000    0.000       13        4     2015  Wheat_Multan_1Nov_8d15mm_85.PRM
   Tot(6)        1       11     2015     17.4    559.4   2969.1   403.00    300.0    317.4      0.0      0.0      0.0    110.7       54    203.9    203.8       60     0.000     0.000     0.000     0.000      146        0        0        0        0       43       33    10.439       56     26.8    2.793   -9.900     0.93    0.000    0.000       12        4     2016  Wheat_Multan_1Nov_8d15mm_85.PRM
   Tot(7)        1       11     2016     25.7    560.5   2955.9   405.50    300.0    325.7      0.0      0.0      0.0    108.2       57    198.2    196.7       56     0.000     0.000     0.000     0.000      142        0        0        0        0       40       36    10.199       55     21.1    2.156   -9.900     0.74    0.000    0.000        9        4     2017  Wheat_Multan_1Nov_8d15mm_85.PRM
   Tot(8)        1       11     2017     16.1    565.9   2962.1   408.50    300.0    316.1      0.0      0.0      0.0    107.4       56    202.0    201.9       57     0.000     0.000     0.000     0.000      145        0        0        0        0       40       34    10.449       55     21.7    2.264   -9.900     0.76    0.000    0.000       12        4     2018  Wheat_Multan_1Nov_8d15mm_85.PRM
   Tot(9)        1       11     2018     46.6    557.6   2969.2   411.50    300.0    346.6      0.0      0.0      0.0    114.5       58    218.9    219.1       63     0.000     0.000     0.000     0.000      143        0        0        0        0       39       31    11.330       60     24.6    2.782   -9.900     0.87    0.000    0.000       10        4     2019  Wheat_Multan_1Nov_8d15mm_85.PRM
  Tot(10)        1       11     2019     19.4    558.6   2962.0   414.50    300.0    319.4      0.0      0.0      0.0    107.6       54    205.4    205.5       61     0.000     0.000     0.000     0.000      144        0        0        0        0       45       33    10.500       55     25.6    2.686   -9.900     0.89    0.000    0.000       10        4     2020  Wheat_Multan_1Nov_8d15mm_85.PRM
  Tot(11)        1       11     2020     25.7    567.6   2965.8   417.50    300.0    325.7      0.0      0.0      0.0    113.1       58    209.8    211.0       58     0.000     0.000     0.000     0.000      146        0        0        0        0       39       33    11.106       58     24.7    2.744   -9.900     0.90    0.000    0.000       13        4     2021  Wheat_Multan_1Nov_8d15mm_85.PRM
  Tot(12)        1       11     2021     25.2    572.3   2970.5   420.50    300.0    325.2      0.0      0.0      0.0    106.7       55    215.2    214.9       60     0.000     0.000     0.000     0.000      146        0        0        0        0       41       32    11.335       59     25.5    2.888   -9.900     0.94    0.000    0.000       13        4     2022  Wheat_Multan_1Nov_8d15mm_85.PRM
  Tot(13)        1       11     2022     14.9    567.7   2970.0   423.50    300.0    314.9      0.0      0.0      0.0    108.7       55    196.7    195.6       57     0.000     0.000     0.000     0.000      143        0        0        0        0       42       35    10.289       54     21.3    2.196   -9.900     0.75    0.000    0.000       10        4     2023  Wheat_Multan_1Nov_8d15mm_85.PRM
  Tot(14)        1       11     2023     44.9    564.4   2959.9   426.50    300.0    344.9      0.0      0.0      0.0    109.7       59    233.2    234.7       64     0.000     0.000     0.000     0.000      149        0        0        0        1       32       28    12.944       65     24.3    3.143   -9.900     0.95    0.000    0.000       15        4     2024  Wheat_Multan_1Nov_8d15mm_85.PRM
  Tot(15)        1       11     2024     29.3    561.6   2966.3   429.50    300.0    329.3      0.0      0.0      0.0    107.9       55    211.2    209.5       61     0.000     0.000     0.000     0.000      143        0        0        0        0       41       32    11.110       58     24.0    2.669   -9.900     0.87    0.000    0.000       10        4     2025  Wheat_Multan_1Nov_8d15mm_85.PRM
  Tot(16)        1       11     2025     64.6    563.0   2973.7   433.00    300.0    361.2      3.4      0.0      0.0    111.0       55    242.4    243.9       70     0.000     0.000     0.000     0.000      146        0        0        0        1       39       26    12.908       66     32.5    4.200   -9.900     1.23    0.000    0.000       13        4     2026  Wheat_Multan_1Nov_8d15mm_85.PRM
  Tot(17)        1       11     2026     96.8    546.7   2954.8   436.50    285.0    381.6      0.2      0.0      0.0    105.8       58    268.8    268.9       73     0.000     0.000     0.000     0.000      141        0        0        0        0       16       21    14.687       76     33.4    4.910   -9.900     1.37    0.000    0.000        8        4     2027  Wheat_Multan_1Nov_8d15mm_85.PRM
  Tot(18)        1       11     2027     34.6    549.0   2953.6   440.00    300.0    334.6      0.0      0.0      0.0    123.4       65    201.7    200.1       59     0.000     0.000     0.000     0.000      143        0        0        0        0       44       34    10.966       56     25.6    2.810   -9.900     0.94    0.000    0.000        9        4     2028  Wheat_Multan_1Nov_8d15mm_85.PRM
  Tot(19)        1       11     2028     26.5    566.7   2959.4   443.50    300.0    326.5      0.0      0.0      0.0    112.0       57    208.3    208.7       60     0.000     0.000     0.000     0.000      144        0        0        0        0       42       34    11.361       57     25.6    2.912   -9.900     0.95    0.000    0.000       11        4     2029  Wheat_Multan_1Nov_8d15mm_85.PRM
  Tot(20)        1       11     2029     65.7    553.5   2973.9   447.00    285.0    350.7      0.0      0.0      0.0    113.8       58    233.9    235.2       69     0.000     0.000     0.000     0.000      140        0        0        0        0       43       28    12.207       63     29.1    3.556   -9.900     1.08    0.000    0.000        7        4     2030  Wheat_Multan_1Nov_8d15mm_85.PRM
  Tot(21)        1       11     2030     23.1    553.2   2959.9   450.50    285.0    308.1      0.0      0.0      0.0    108.8       56    197.4    197.4       59     0.000     0.000     0.000     0.000      140        0        0        0        0       42       34    10.766       55     24.0    2.587   -9.900     0.88    0.000    0.000        7        4     2031  Wheat_Multan_1Nov_8d15mm_85.PRM
  Tot(22)        1       11     2031     29.7    551.5   2959.4   454.00    300.0    329.6      0.1      0.0      0.0    100.9       54    218.6    216.7       64     0.000     0.000     0.000     0.000      143        0        0        0        1       34       29    12.742       64     24.9    3.174   -9.900     1.04    0.000    0.000        9        4     2032  Wheat_Multan_1Nov_8d15mm_85.PRM
  Tot(23)        1       11     2032     34.6    544.0   2963.3   458.00    285.0    319.6      0.0      0.0      0.0    102.7       57    213.3    215.2       64     0.000     0.000     0.000     0.000      140        0        0        0        0       36       30    12.007       62     26.6    3.196   -9.900     1.06    0.000    0.000        7        4     2033  Wheat_Multan_1Nov_8d15mm_85.PRM
  Tot(24)        1       11     2033     25.2    544.5   2958.3   462.00    300.0    325.2      0.0      0.0      0.0    115.3       62    197.1    195.7       60     0.000     0.000     0.000     0.000      142        0        0        0        0       40       33    11.335       57     25.2    2.853   -9.900     0.98    0.000    0.000        9        4     2034  Wheat_Multan_1Nov_8d15mm_85.PRM
  Tot(25)        1       11     2034     19.9    544.6   2953.2   466.00    285.0    304.9      0.0      0.0      0.0    103.8       55    198.7    200.2       60     0.000     0.000     0.000     0.000      141        0        0        0        0       42       34    11.329       57     25.5    2.886   -9.900     0.99    0.000    0.000        8        4     2035  Wheat_Multan_1Nov_8d15mm_85.PRM
  Tot(26)        1       11     2035     35.0    537.9   2958.6   470.00    285.0    319.8      0.2      0.0      0.0    106.6       54    205.7    204.0       64     0.000     0.000     0.000     0.000      139        0        0        0        0       42       30    11.571       58     27.5    3.177   -9.900     1.06    0.000    0.000        5        4     2036  Wheat_Multan_1Nov_8d15mm_85.PRM
  Tot(27)        1       11     2036     16.6    549.9   2971.8   474.00    285.0    301.6      0.0      0.0      0.0    116.7       56    179.0    179.2       56     0.000     0.000     0.000     0.000      139        0        0        0        0       46       37     9.959       50     23.9    2.379   -9.900     0.84    0.000    0.000        6        4     2037  Wheat_Multan_1Nov_8d15mm_85.PRM
  Tot(28)        1       11     2037     35.9    547.0   2967.5   478.50    300.0    335.9      0.0      0.0      0.0    108.4       56    211.2    211.1       65     0.000     0.000     0.000     0.000      142        0        0        0        0       39       29    12.358       61     27.3    3.374   -9.900     1.11    0.000    0.000        9        4     2038  Wheat_Multan_1Nov_8d15mm_85.PRM
  Tot(29)        1       11     2038     53.4    549.3   2972.5   483.00    285.0    337.9      0.5      0.0      0.0    111.7       59    218.2    219.4       66     0.000     0.000     0.000     0.000      140        0        0        0        0       37       28    12.516       62     32.3    4.045   -9.900     1.28    0.000    0.000        7        4     2039  Wheat_Multan_1Nov_8d15mm_85.PRM
  Tot(30)        1       11     2039     56.7    535.8   2955.7   487.00    285.0    341.7      0.0      0.0      0.0    116.2       64    213.9    214.0       67     0.000     0.000     0.000     0.000      146        0        0        0        0       38       29    12.597       62     34.6    4.364   -9.900     1.33    0.000    0.000        4        4     2040  Wheat_Multan_1Nov_8d15mm_85.PRM
  Tot(31)        1       11     2040     79.8    541.6   2968.2   491.50    285.0    363.0      1.8      0.0      0.0    114.0       61    229.7    228.4       68     0.000     0.000     0.000     0.000      139        0        0        0        0       37       27    12.812       63     27.0    3.460   -9.900     1.05    0.000    0.000        6        4     2041  Wheat_Multan_1Nov_8d15mm_85.PRM
  Tot(32)        1       11     2041     14.7    546.9   2954.0   496.50    285.0    299.7      0.0      0.0      0.0     94.6       50    203.9    205.4       61     0.000     0.000     0.000     0.000      140        0        0        0        0       41       32    12.284       60     25.9    3.188   -9.900     1.12    0.000    0.000        7        4     2042  Wheat_Multan_1Nov_8d15mm_85.PRM
  Tot(33)        1       11     2042     32.2    551.0   2972.7   501.50    285.0    317.1      0.1      0.0      0.0    105.3       54    208.0    208.0       63     0.000     0.000     0.000     0.000      140        0        0        0        1       43       31    12.082       59     27.5    3.321   -9.900     1.11    0.000    0.000        7        4     2043  Wheat_Multan_1Nov_8d15mm_85.PRM
  Tot(34)        1       11     2043     20.5    541.8   2953.5   506.00    285.0    305.5      0.0      0.0      0.0    116.4       57    185.5    184.8       59     0.000     0.000     0.000     0.000      137        0        0        0        0       45       35    10.619       53     24.6    2.607   -9.900     0.90    0.000    0.000        3        4     2044  Wheat_Multan_1Nov_8d15mm_85.PRM
  Tot(35)        1       11     2044     36.6    544.6   2962.4   510.50    285.0    321.6      0.0      0.0      0.0    101.3       58    218.3    219.0       65     0.000     0.000     0.000     0.000      141        0        0        0        0       33       28    13.619       65     24.6    3.350   -9.900     1.09    0.000    0.000        8        4     2045  Wheat_Multan_1Nov_8d15mm_85.PRM
  Tot(36)        1       11     2045     19.6    550.2   2972.0   516.00    285.0    304.6      0.0      0.0      0.0    107.4       53    193.8    193.2       60     0.000     0.000     0.000     0.000      139        0        0        0        0       41       33    11.565       56     26.4    3.053   -9.900     1.06    0.000    0.000        6        4     2046  Wheat_Multan_1Nov_8d15mm_85.PRM
  Tot(37)        1       11     2046     44.4    538.0   2955.2   521.50    285.0    329.2      0.2      0.0      0.0    107.7       59    218.2    218.7       67     0.000     0.000     0.000     0.000      139        0        0        0        0       36       28    13.123       63     28.9    3.796   -9.900     1.24    0.000    0.000        6        4     2047  Wheat_Multan_1Nov_8d15mm_85.PRM
  Tot(38)        1       11     2047     36.0    539.7   2951.4   526.50    285.0    321.0      0.0      0.0      0.0    116.6       61    197.8    197.4       61     0.000     0.000     0.000     0.000      137        0        0        0        0       43       33    11.547       56     26.6    3.068   -9.900     1.04    0.000    0.000        3        4     2048  Wheat_Multan_1Nov_8d15mm_85.PRM
  Tot(39)        1       11     2048     29.0    545.7   2962.6   532.00    285.0    314.0      0.0      0.0      0.0    106.3       55    204.2    204.5       62     0.000     0.000     0.000     0.000      139        0        0        0        0       37       31    12.633       60     24.5    3.099   -9.900     1.07    0.000    0.000        6        4     2049  Wheat_Multan_1Nov_8d15mm_85.PRM
  Tot(40)        1       11     2049     59.0    536.8   2966.1   538.00    285.0    343.9      0.1      0.0      0.0    117.5       59    217.8    216.2       69     0.000     0.000     0.000     0.000      137        0        0        0        0       42       27    12.714       61     30.4    3.864   -9.900     1.22    0.000    0.000        4        4     2050  Wheat_Multan_1Nov_8d15mm_85.PRM
  Tot(41)        1       11     2050     31.9    532.4   2973.3   543.50    285.0    316.9      0.0      0.0      0.0    102.6       53    208.5    208.7       66     0.000     0.000     0.000     0.000      136        0        0        0        0       42       28    12.916       62     28.5    3.682   -9.900     1.26    0.000    0.000        3        4     2051  Wheat_Multan_1Nov_8d15mm_85.PRM
  Tot(42)        1       11     2051     88.2    544.1   2972.1   549.00    285.0    368.0      5.2      0.0      0.0    116.1       57    233.7    234.1       75     0.000     0.000     0.000     0.000      140        0        0        0        0       43       23    13.696       64     32.5    4.445   -9.900     1.32    0.000    0.000        6        4     2052  Wheat_Multan_1Nov_8d15mm_85.PRM
  Tot(43)        1       11     2052     70.4    537.0   2952.5   555.00    285.0    354.1      1.3      0.0      0.0    113.6       59    217.5    216.8       68     0.000     0.000     0.000     0.000      137        0        0        0        0       37       27    13.311       64     28.5    3.788   -9.900     1.19    0.000    0.000        4        4     2053  Wheat_Multan_1Nov_8d15mm_85.PRM
  Tot(44)        1       11     2053     36.5    528.5   2956.9   561.00    270.0    306.1      0.4      0.0      0.0    115.2       57    183.4    183.6       62     0.000     0.000     0.000     0.000      131        0        0        0        0       46       32    10.714       53     25.9    2.780   -9.900     0.97    0.000    0.000       29        3     2054  Wheat_Multan_1Nov_8d15mm_85.PRM
  Tot(45)        1       11     2054     40.8    517.8   2966.7   567.50    270.0    310.7      0.1      0.0      0.0    111.5       58    195.0    196.6       67     0.000     0.000     0.000     0.000      132        0        0        0        0       45       30    11.859       59     29.9    3.551   -9.900     1.22    0.000    0.000       30        3     2055  Wheat_Multan_1Nov_8d15mm_85.PRM
  Tot(46)        1       11     2055     37.4    539.5   2959.1   574.00    285.0    322.1      0.3      0.0      0.0    106.7       54    203.3    201.7       65     0.000     0.000     0.000     0.000      135        0        0        0        0       46       30    12.194       58     26.8    3.269   -9.900     1.10    0.000    0.000        1        4     2056  Wheat_Multan_1Nov_8d15mm_85.PRM
  Tot(47)        1       11     2056     38.6    527.0   2957.3   580.00    270.0    308.4      0.2      0.0      0.0    112.3       59    193.7    195.3       64     0.000     0.000     0.000     0.000      133        0        0        0        0       43       31    11.968       58     27.1    3.244   -9.900     1.12    0.000    0.000       31        3     2057  Wheat_Multan_1Nov_8d15mm_85.PRM
  Tot(48)        1       11     2057     31.4    538.1   2952.9   586.50    285.0    316.4      0.0      0.0      0.0    110.3       55    187.8    185.9       61     0.000     0.000     0.000     0.000      135        0        0        0        0       44       34    11.743       56     26.4    3.095   -9.900     1.09    0.000    0.000        2        4     2058  Wheat_Multan_1Nov_8d15mm_85.PRM
  Tot(49)        1       11     2058     12.1    539.5   2975.1   593.50    285.0    297.1      0.0      0.0      0.0    110.7       57    182.5    183.7       59     0.000     0.000     0.000     0.000      137        0        0        0        0       42       35    11.611       54     23.1    2.680   -9.900     0.96    0.000    0.000        4        4     2059  Wheat_Multan_1Nov_8d15mm_85.PRM
  Tot(50)        1       11     2059     43.9    530.9   2951.7   600.50    270.0    313.6      0.3      0.0      0.0    113.1       57    194.0    194.3       63     0.000     0.000     0.000     0.000      133        0        0        0        0       39       31    12.359       59     25.9    3.206   -9.900     1.09    0.000    0.000       30        3     2060  Wheat_Multan_1Nov_8d15mm_85.PRM
  Tot(51)        1       11     2060     35.6    525.6   2960.0   607.50    270.0    305.6      0.0      0.0      0.0    119.9       65    184.1    184.5       62     0.000     0.000     0.000     0.000      133        0        0        0        0       39       32    12.066       58     24.8    2.988   -9.900     1.11    0.000    0.000       31        3     2061  Wheat_Multan_1Nov_8d15mm_85.PRM
  Tot(52)        1       11     2061     73.9    526.0   2963.3   614.50    270.0    343.8      0.1      0.0      0.0    109.0       55    224.8    224.3       73     0.000     0.000     0.000     0.000      133        0        0        0        0       41       25    14.067       67     32.2    4.530   -9.900     1.43    0.000    0.000       31        3     2062  Wheat_Multan_1Nov_8d15mm_85.PRM
  Tot(53)        1       11     2062     64.5    519.5   2970.9   621.50    285.0    349.5      0.0      0.0      0.0    120.6       71    210.1    209.8       68     0.000     0.000     0.000     0.000      138        0        0        0        0       34       28    14.337       67     32.2    4.617   -9.900     1.50    0.000    0.000        1        4     2063  Wheat_Multan_1Nov_8d15mm_85.PRM
  Tot(54)        1       11     2063     39.1    542.3   2966.8   628.50    285.0    324.1      0.0      0.0      0.0    109.5       54    200.7    199.6       66     0.000     0.000     0.000     0.000      135        0        0        0        0       40       30    12.723       60     31.5    4.013   -9.900     1.37    0.000    0.000        1        4     2064  Wheat_Multan_1Nov_8d15mm_85.PRM
  Tot(55)        1       11     2064     38.4    516.0   2970.7   635.50    270.0    308.4      0.0      0.0      0.0    112.7       62    190.7    192.4       65     0.000     0.000     0.000     0.000      136        0        0        0        0       41       31    12.450       59     31.3    3.896   -9.900     1.33    0.000    0.000       30        3     2065  Wheat_Multan_1Nov_8d15mm_85.PRM
  Tot(56)        1       11     2065     30.8    531.8   2963.7   643.00    270.0    300.8      0.0      0.0      0.0    108.4       55    190.8    191.1       64     0.000     0.000     0.000     0.000      133        0        0        0        0       41       31    12.621       60     26.6    3.356   -9.900     1.18    0.000    0.000       31        3     2066  Wheat_Multan_1Nov_8d15mm_85.PRM
  Tot(57)        1       11     2066     36.7    511.5   2971.5   650.50    270.0    306.1      0.6      0.0      0.0    107.3       56    175.3    173.8       62     0.000     0.000     0.000     0.000      127        0        0        0        0       43       33    10.969       55     26.8    2.942   -9.900     1.09    0.000    0.000       25        3     2067  Wheat_Multan_1Nov_8d15mm_85.PRM
  Tot(58)        1       11     2067     19.3    541.9   2968.9   658.00    270.0    289.3      0.0      0.0      0.0    116.4       55    172.2    173.7       58     0.000     0.000     0.000     0.000      133        0        0        0        0       46       36    11.102       53     24.0    2.662   -9.900     0.97    0.000    0.000       30        3     2068  Wheat_Multan_1Nov_8d15mm_85.PRM
  Tot(59)        1       11     2068     22.0    537.6   2974.8   665.50    270.0    292.0      0.0      0.0      0.0    106.6       52    183.4    183.4       63     0.000     0.000     0.000     0.000      132        0        0        0        0       47       33    11.714       56     27.1    3.180   -9.900     1.15    0.000    0.000       30        3     2069  Wheat_Multan_1Nov_8d15mm_85.PRM
  Tot(60)        1       11     2069     23.5    534.5   2970.8   673.00    270.0    293.5      0.0      0.0      0.0    114.4       56    176.8    176.8       60     0.000     0.000     0.000     0.000      131        0        0        0        0       44       34    11.438       55     25.8    2.952   -9.900     1.08    0.000    0.000       29        3     2070  Wheat_Multan_1Nov_8d15mm_85.PRM
  Tot(61)        1       11     2070     25.3    524.5   2958.4   681.00    270.0    295.3      0.0      0.0      0.0    108.0       52    177.8    176.2       63     0.000     0.000     0.000     0.000      128        0        0        0        0       44       32    11.307       55     26.8    3.030   -9.900     1.11    0.000    0.000       26        3     2071  Wheat_Multan_1Nov_8d15mm_85.PRM
  Tot(62)        1       11     2071     54.1    518.5   2958.0   689.00    270.0    323.9      0.2      0.0      0.0    103.8       53    212.1    212.5       73     0.000     0.000     0.000     0.000      129        0        0        0        0       35       23    13.910       68     28.2    3.917   -9.900     1.30    0.000    0.000       26        3     2072  Wheat_Multan_1Nov_8d15mm_85.PRM
  Tot(63)        1       11     2072     22.6    530.5   2954.0   697.00    270.0    292.6      0.0      0.0      0.0    107.5       51    179.6    179.3       64     0.000     0.000     0.000     0.000      129        0        0        0        0       45       32    11.239       55     26.3    2.960   -9.900     1.09    0.000    0.000       27        3     2073  Wheat_Multan_1Nov_8d15mm_85.PRM
  Tot(64)        1       11     2073     39.8    518.4   2952.9   705.00    270.0    309.5      0.3      0.0      0.0    107.5       56    189.0    188.5       64     0.000     0.000     0.000     0.000      127        0        0        0        0       36       30    12.324       60     26.0    3.210   -9.900     1.16    0.000    0.000       25        3     2074  Wheat_Multan_1Nov_8d15mm_85.PRM
  Tot(65)        1       11     2074     20.8    518.6   2967.3   713.00    270.0    290.8      0.0      0.0      0.0    105.3       53    177.3    179.2       67     0.000     0.000     0.000     0.000      137        0        0        0        0       45       30    11.915       57     35.6    4.243   -9.900     1.52    0.000    0.000       27        3     2075  Wheat_Multan_1Nov_8d15mm_85.PRM
  Tot(66)        1       11     2075     21.0    532.7   2972.7   721.00    270.0    291.0      0.0      0.0      0.0    104.3       53    181.4    180.1       63     0.000     0.000     0.000     0.000      128        0        0        0        0       39       31    11.970       58     25.1    3.002   -9.900     1.10    0.000    0.000       25        3     2076  Wheat_Multan_1Nov_8d15mm_85.PRM
  Tot(67)        1       11     2076     40.4    512.8   2962.6   729.00    270.0    310.4      0.0      0.0      0.0    116.7       57    182.4    182.1       66     0.000     0.000     0.000     0.000      127        0        0        0        0       44       30    11.958       59     29.4    3.511   -9.900     1.24    0.000    0.000       25        3     2077  Wheat_Multan_1Nov_8d15mm_85.PRM
  Tot(68)        1       11     2077     29.4    519.0   2953.6   737.50    270.0    299.3      0.1      0.0      0.0    108.6       52    174.8    174.8       64     0.000     0.000     0.000     0.000      126        0        0        0        0       44       31    11.213       55     26.8    3.004   -9.900     1.12    0.000    0.000       24        3     2078  Wheat_Multan_1Nov_8d15mm_85.PRM
  Tot(69)        1       11     2078     29.2    518.4   2951.3   746.00    270.0    299.2      0.0      0.0      0.0    115.9       55    171.4    171.3       64     0.000     0.000     0.000     0.000      127        0        0        0        0       47       31    11.053       54     27.9    3.079   -9.900     1.13    0.000    0.000       25        3     2079  Wheat_Multan_1Nov_8d15mm_85.PRM
  Tot(70)        1       11     2079     68.7    507.6   2970.5   754.00    270.0    337.2      1.5      0.0      0.0    123.4       70    196.0    197.6       72     0.000     0.000     0.000     0.000      134        0        0        0        0       39       26    13.451       65     37.5    5.038   -9.900     1.67    0.000    0.000       24        3     2080  Wheat_Multan_1Nov_8d15mm_85.PRM
  Tot(71)        1       11     2080     46.3    510.2   2965.5   762.50    255.0    301.3      0.0      0.0      0.0    121.6       57    177.1    177.4       66     0.000     0.000     0.000     0.000      125        0        0        0        0       42       30    11.866       59     29.9    3.547   -9.900     1.31    0.000    0.000       23        3     2081  Wheat_Multan_1Nov_8d15mm_85.PRM
  Tot(72)        1       11     2081     59.9    508.1   2953.8   771.00    270.0    329.9      0.0      0.0      0.0    108.1       56    210.7    208.8       76     0.000     0.000     0.000     0.000      128        0        0        0        0       39       21    13.998       68     32.3    4.520   -9.900     1.48    0.000    0.000       26        3     2082  Wheat_Multan_1Nov_8d15mm_85.PRM
  Tot(73)        1       11     2082     28.2    521.1   2966.8   779.50    270.0    298.2      0.0      0.0      0.0    119.9       55    167.8    168.1       64     0.000     0.000     0.000     0.000      127        0        0        0        0       48       32    11.077       54     29.5    3.263   -9.900     1.25    0.000    0.000       25        3     2083  Wheat_Multan_1Nov_8d15mm_85.PRM
  Tot(74)        1       11     2083     25.1    514.7   2954.6   788.00    270.0    295.1      0.0      0.0      0.0    110.6       56    171.1    170.8       62     0.000     0.000     0.000     0.000      126        0        0        0        0       38       33    11.627       57     23.5    2.730   -9.900     1.03    0.000    0.000       23        3     2084  Wheat_Multan_1Nov_8d15mm_85.PRM
  Tot(75)        1       11     2084     13.7    516.5   2965.0   796.50    255.0    268.7      0.0      0.0      0.0    105.5       52    161.0    162.8       61     0.000     0.000     0.000     0.000      124        0        0        0        0       47       34    10.648       53     26.7    2.839   -9.900     1.13    0.000    0.000       22        3     2085  Wheat_Multan_1Nov_8d15mm_85.PRM
  Tot(76)        1       11     2085     42.7    519.7   2961.0   805.50    270.0    312.1      0.6      0.0      0.0    108.1       55    192.9    191.3       70     0.000     0.000     0.000     0.000      128        0        0        0        0       41       26    12.870       63     31.1    4.000   -9.900     1.39    0.000    0.000       26        3     2086  Wheat_Multan_1Nov_8d15mm_85.PRM
  Tot(77)        1       11     2086     47.2    511.1   2963.8   814.00    270.0    317.0      0.2      0.0      0.0    122.1       61    182.5    182.5       68     0.000     0.000     0.000     0.000      127        0        0        0        0       45       28    12.261       60     28.9    3.538   -9.900     1.27    0.000    0.000       25        3     2087  Wheat_Multan_1Nov_8d15mm_85.PRM
  Tot(78)        1       11     2087     58.8    513.2   2963.4   822.50    255.0    313.7      0.1      0.0      0.0    114.2       59    194.5    196.1       75     0.000     0.000     0.000     0.000      132        0        0        0        0       44       24    13.023       64     36.9    4.809   -9.900     1.60    0.000    0.000       21        3     2088  Wheat_Multan_1Nov_8d15mm_85.PRM
  Tot(79)        1       11     2088     67.5    503.4   2952.1   831.50    255.0    322.4      0.1      0.0      0.0    122.6       71    191.7    191.9       73     0.000     0.000     0.000     0.000      135        0        0        0        0       41       23    13.092       65     39.3    5.139   -9.900     1.68    0.000    0.000       21        3     2089  Wheat_Multan_1Nov_8d15mm_85.PRM
  Tot(80)        1       11     2089     18.3    523.3   2954.7   840.50    255.0    273.3      0.0      0.0      0.0    110.8       52    160.5    160.5       62     0.000     0.000     0.000     0.000      124        0        0        0        0       49       33    10.626       53     26.0    2.759   -9.900     1.09    0.000    0.000       22        3     2090  Wheat_Multan_1Nov_8d15mm_85.PRM
  Tot(81)        1       11     2090     26.8    519.7   2961.9   849.50    255.0    281.8      0.0      0.0      0.0    111.4       52    164.6    164.6       65     0.000     0.000     0.000     0.000      125        0        0        0        0       49       32    10.753       54     29.5    3.177   -9.900     1.21    0.000    0.000       23        3     2091  Wheat_Multan_1Nov_8d15mm_85.PRM
  Tot(82)        1       11     2091     34.3    506.2   2952.8   858.50    255.0    289.3      0.0      0.0      0.0    117.4       55    162.0    161.8       68     0.000     0.000     0.000     0.000      131        0        0        0        0       47       32    11.052       55     35.7    3.948   -9.900     1.44    0.000    0.000       19        3     2092  Wheat_Multan_1Nov_8d15mm_85.PRM
  Tot(83)        1       11     2092     33.5    517.2   2960.9   867.50    255.0    288.3      0.2      0.0      0.0    112.1       52    173.4    173.5       69     0.000     0.000     0.000     0.000      123        0        0        0        0       47       28    11.282       57     28.5    3.221   -9.900     1.19    0.000    0.000       21        3     2093  Wheat_Multan_1Nov_8d15mm_85.PRM
  Tot(84)        1       11     2093      8.2    518.2   2969.4   876.50    255.0    263.2      0.0      0.0      0.0    104.6       50    156.2    156.2       61     0.000     0.000     0.000     0.000      124        0        0        0        0       47       34    10.336       52     27.2    2.807   -9.900     1.14    0.000    0.000       22        3     2094  Wheat_Multan_1Nov_8d15mm_85.PRM
  Tot(85)        1       11     2094     10.9    510.4   2966.8   885.50    270.0    280.9      0.0      0.0      0.0    106.7       55    159.4    158.2       63     0.000     0.000     0.000     0.000      126        0        0        0        0       48       32    10.832       54     28.9    3.129   -9.900     1.25    0.000    0.000       24        3     2095  Wheat_Multan_1Nov_8d15mm_85.PRM
  Tot(86)        1       11     2095     55.1    506.2   2964.5   894.50    255.0    310.1      0.0      0.0      0.0    117.6       64    185.1    186.3       73     0.000     0.000     0.000     0.000      133        0        0        0        0       44       23    12.883       64     37.7    4.861   -9.900     1.69    0.000    0.000       21        3     2096  Wheat_Multan_1Nov_8d15mm_85.PRM
  Tot(87)        1       11     2096     22.5    523.2   2952.4   903.50    255.0    277.5      0.0      0.0      0.0    123.4       52    147.9    147.8       65     0.000     0.000     0.000     0.000      130        0        0        0        0       51       33     9.777       49     33.0    3.222   -9.900     1.21    0.000    0.000       20        3     2097  Wheat_Multan_1Nov_8d15mm_85.PRM
  Tot(88)        1       11     2097     56.6    507.4   2969.1   912.50    255.0    311.6      0.0      0.0      0.0    114.7       59    190.8    190.3       70     0.000     0.000     0.000     0.000      123        0        0        0        0       43       26    12.700       65     29.7    3.777   -9.900     1.31    0.000    0.000       21        3     2098  Wheat_Multan_1Nov_8d15mm_85.PRM
  Tot(89)        1       11     2098     17.6    509.6   2958.7   922.00    255.0    272.6      0.0      0.0      0.0    105.8       50    164.3    164.9       68     0.000     0.000     0.000     0.000      123        0        0        0        0       48       29    11.205       57     29.9    3.350   -9.900     1.31    0.000    0.000       21        3     2099  Wheat_Multan_1Nov_8d15mm_85.PRM
