AquaCrop 7.1 (August 2023) - Output created on (date) : 05-12-2023   at (time) : 09:34:39

    RunNr     Day1   Month1    Year1     Rain      ETo       GD     CO2      Irri   Infilt   Runoff    Drain   Upflow        E     E/Ex       Tr      TrW   Tr/Trx    SaltIn   SaltOut    SaltUp  SaltProf     Cycle   SaltStr  FertStr  WeedStr  TempStr   ExpStr   StoStr  BioMass  Brelative   HI    Y(dry)  Y(fresh)    WPet      Bin     Bout     DayN   MonthN    YearN
                                           mm       mm  degC.day    ppm        mm       mm       mm       mm       mm       mm        %       mm       mm        %    ton/ha    ton/ha    ton/ha    ton/ha      days       %        %        %        %        %        %    ton/ha        %       %    ton/ha   ton/ha    kg/m3   ton/ha   ton/ha
   Tot(1)        1       11     2010     26.8    563.2   2967.7   390.74    299.0    325.7      0.1      0.0      0.0    125.9       61    198.0    198.0       59     0.000     0.000     0.000     0.000      142        0        0        0        0       43       33     9.798       54     23.1    2.263   -9.900     0.75    0.000    0.000       14        4     2011  Wheat_Multan_1Nov_7d13mm_45.PRM
   Tot(2)        1       11     2011     41.4    582.0   2958.6   392.73    312.0    353.4      0.0      0.0      0.0    120.0       61    226.9    224.2       62     0.000     0.000     0.000     0.000      146        0        0        0        1       38       30    10.990       60     23.3    2.562   -9.900     0.79    0.000    0.000       17        4     2012  Wheat_Multan_1Nov_7d13mm_45.PRM
   Tot(3)        1       11     2012     43.9    572.8   2974.2   395.15    299.0    342.8      0.1      0.0      0.0    115.1       58    226.5    229.2       65     0.000     0.000     0.000     0.000      143        0        0        0        1       38       28    11.131       61     24.0    2.670   -9.900     0.83    0.000    0.000       15        4     2013  Wheat_Multan_1Nov_7d13mm_45.PRM
   Tot(4)        1       11     2013     44.3    571.6   2952.7   397.51    299.0    343.3      0.0      0.0      0.0    117.3       60    222.8    222.8       63     0.000     0.000     0.000     0.000      143        0        0        0        1       35       28    11.423       63     22.3    2.551   -9.900     0.81    0.000    0.000       15        4     2014  Wheat_Multan_1Nov_7d13mm_45.PRM
   Tot(5)        1       11     2014     28.4    567.3   2956.0   399.27    299.0    327.4      0.0      0.0      0.0    118.4       58    205.7    204.9       58     0.000     0.000     0.000     0.000      141        0        0        0        0       38       32    10.665       58     20.3    2.161   -9.900     0.72    0.000    0.000       13        4     2015  Wheat_Multan_1Nov_7d13mm_45.PRM
   Tot(6)        1       11     2015     97.8    564.1   2958.1   401.00    299.0    396.6      0.2      0.0      0.0    119.2       62    275.8    276.7       76     0.000     0.000     0.000     0.000      149        0        0        0        0       30       21    13.965       74     30.5    4.252   -9.900     1.11    0.000    0.000       13        4     2016  Wheat_Multan_1Nov_7d13mm_45.PRM
   Tot(7)        1       11     2016     71.0    563.4   2953.7   403.00    299.0    369.6      0.4      0.0      0.0    111.8       57    254.3    254.3       70     0.000     0.000     0.000     0.000      142        0        0        0        0       27       23    13.103       71     25.9    3.394   -9.900     0.99    0.000    0.000       14        4     2017  Wheat_Multan_1Nov_7d13mm_45.PRM
   Tot(8)        1       11     2017     51.4    571.9   2952.2   405.50    299.0    349.4      1.0      0.0      0.0    126.7       59    215.1    214.7       62     0.000     0.000     0.000     0.000      140        0        0        0        0       46       32    10.327       56     24.2    2.498   -9.900     0.78    0.000    0.000       12        4     2018  Wheat_Multan_1Nov_7d13mm_45.PRM
   Tot(9)        1       11     2018     55.3    558.9   2969.6   408.00    299.0    354.1      0.2      0.0      0.0    134.2       66    215.8    215.0       64     0.000     0.000     0.000     0.000      140        0        0        0        1       36       29    10.995       60     23.8    2.619   -9.900     0.81    0.000    0.000       12        4     2019  Wheat_Multan_1Nov_7d13mm_45.PRM
  Tot(10)        1       11     2019     63.3    569.3   2956.7   410.00    299.0    362.3      0.0      0.0      0.0    127.5       62    234.0    235.1       67     0.000     0.000     0.000     0.000      142        0        0        0        0       42       28    11.682       62     26.1    3.049   -9.900     0.90    0.000    0.000       13        4     2020  Wheat_Multan_1Nov_7d13mm_45.PRM
  Tot(11)        1       11     2020     34.4    550.4   2954.9   412.00    299.0    333.4      0.0      0.0      0.0    114.2       60    214.0    211.5       63     0.000     0.000     0.000     0.000      139        0        0        0        0       38       29    11.189       61     23.2    2.596   -9.900     0.85    0.000    0.000       11        4     2021  Wheat_Multan_1Nov_7d13mm_45.PRM
  Tot(12)        1       11     2021     31.8    562.3   2964.5   414.50    299.0    330.6      0.2      0.0      0.0    112.6       58    208.1    208.0       61     0.000     0.000     0.000     0.000      138        0        0        0        0       34       31    10.766       59     20.4    2.196   -9.900     0.74    0.000    0.000       10        4     2022  Wheat_Multan_1Nov_7d13mm_45.PRM
  Tot(13)        1       11     2022     67.0    559.5   2956.1   417.00    299.0    365.6      0.4      0.0      0.0    117.2       60    240.9    242.1       69     0.000     0.000     0.000     0.000      147        0        0        0        0       38       26    12.712       66     29.3    3.723   -9.900     1.07    0.000    0.000       12        4     2023  Wheat_Multan_1Nov_7d13mm_45.PRM
  Tot(14)        1       11     2023     21.2    576.8   2969.6   419.00    299.0    320.2      0.0      0.0      0.0    127.7       63    192.3    193.6       56     0.000     0.000     0.000     0.000      144        0        0        0        1       42       37    10.212       53     20.3    2.073   -9.900     0.70    0.000    0.000       15        4     2024  Wheat_Multan_1Nov_7d13mm_45.PRM
  Tot(15)        1       11     2024     38.1    559.1   2958.3   421.50    299.0    337.1      0.0      0.0      0.0    124.9       61    201.3    198.9       61     0.000     0.000     0.000     0.000      138        0        0        0        0       42       31    10.216       55     21.4    2.181   -9.900     0.72    0.000    0.000       10        4     2025  Wheat_Multan_1Nov_7d13mm_45.PRM
  Tot(16)        1       11     2025     36.6    565.8   2962.6   424.00    299.0    335.6      0.0      0.0      0.0    118.4       58    214.4    216.0       61     0.000     0.000     0.000     0.000      140        0        0        0        0       36       30    11.412       60     21.7    2.472   -9.900     0.80    0.000    0.000       12        4     2026  Wheat_Multan_1Nov_7d13mm_45.PRM
  Tot(17)        1       11     2026     17.2    574.3   2955.0   426.50    299.0    316.2      0.0      0.0      0.0    121.6       61    193.2    193.8       55     0.000     0.000     0.000     0.000      141        0        0        0        1       38       35    10.506       55     19.1    2.005   -9.900     0.69    0.000    0.000       13        4     2027  Wheat_Multan_1Nov_7d13mm_45.PRM
  Tot(18)        1       11     2027     48.6    557.8   2972.7   429.00    286.0    334.6      0.0      0.0      0.0    122.7       58    210.4    210.4       62     0.000     0.000     0.000     0.000      136        0        0        0        0       47       32    10.369       56     24.3    2.521   -9.900     0.81    0.000    0.000        7        4     2028  Wheat_Multan_1Nov_7d13mm_45.PRM
  Tot(19)        1       11     2028     35.9    555.2   2958.2   431.50    299.0    334.9      0.0      0.0      0.0    119.9       63    209.9    207.5       60     0.000     0.000     0.000     0.000      139        0        0        0        0       40       32    11.285       60     22.5    2.536   -9.900     0.82    0.000    0.000       11        4     2029  Wheat_Multan_1Nov_7d13mm_45.PRM
  Tot(20)        1       11     2029     30.5    556.0   2952.9   434.00    299.0    329.5      0.0      0.0      0.0    118.9       59    207.5    208.9       61     0.000     0.000     0.000     0.000      140        0        0        0        1       35       30    11.484       60     21.1    2.419   -9.900     0.80    0.000    0.000       12        4     2030  Wheat_Multan_1Nov_7d13mm_45.PRM
  Tot(21)        1       11     2030     50.3    559.2   2959.0   436.50    299.0    349.3      0.0      0.0      0.0    125.4       65    217.5    217.6       65     0.000     0.000     0.000     0.000      147        0        0        0        0       42       30    12.025       61     27.8    3.348   -9.900     1.03    0.000    0.000       12        4     2031  Wheat_Multan_1Nov_7d13mm_45.PRM
  Tot(22)        1       11     2031     31.5    557.2   2954.1   439.00    286.0    317.5      0.0      0.0      0.0    122.0       61    195.2    196.0       58     0.000     0.000     0.000     0.000      137        0        0        0        0       41       35    10.431       55     21.8    2.279   -9.900     0.78    0.000    0.000        8        4     2032  Wheat_Multan_1Nov_7d13mm_45.PRM
  Tot(23)        1       11     2032     30.3    552.7   2965.5   441.50    286.0    316.3      0.0      0.0      0.0    119.4       58    196.2    196.2       61     0.000     0.000     0.000     0.000      137        0        0        0        0       43       33    10.460       55     23.7    2.477   -9.900     0.85    0.000    0.000        9        4     2033  Wheat_Multan_1Nov_7d13mm_45.PRM
  Tot(24)        1       11     2033     35.2    564.1   2961.2   444.00    299.0    334.0      0.2      0.0      0.0    105.8       54    215.1    213.8       62     0.000     0.000     0.000     0.000      145        0        0        0        0       40       31    11.923       60     25.8    3.076   -9.900     0.99    0.000    0.000       10        4     2034  Wheat_Multan_1Nov_7d13mm_45.PRM
  Tot(25)        1       11     2034     32.1    557.0   2963.0   446.50    299.0    331.1      0.0      0.0      0.0    117.5       59    204.5    203.1       61     0.000     0.000     0.000     0.000      138        0        0        0        0       41       32    11.187       58     23.3    2.610   -9.900     0.87    0.000    0.000       10        4     2035  Wheat_Multan_1Nov_7d13mm_45.PRM
  Tot(26)        1       11     2035     31.2    547.6   2956.4   449.00    286.0    317.2      0.0      0.0      0.0    116.5       57    199.7    202.4       63     0.000     0.000     0.000     0.000      137        0        0        0        0       42       31    10.898       57     24.3    2.648   -9.900     0.90    0.000    0.000        8        4     2036  Wheat_Multan_1Nov_7d13mm_45.PRM
  Tot(27)        1       11     2036     69.0    550.3   2964.9   451.50    299.0    367.9      0.1      0.0      0.0    132.3       68    219.8    219.7       70     0.000     0.000     0.000     0.000      152        0        0        0        0       48       27    12.248       60     36.5    4.464   -9.900     1.30    0.000    0.000       10        4     2037  Wheat_Multan_1Nov_7d13mm_45.PRM
  Tot(28)        1       11     2037     17.4    559.5   2969.9   454.50    286.0    303.4      0.0      0.0      0.0    118.7       57    183.8    183.9       55     0.000     0.000     0.000     0.000      137        0        0        0        0       44       36    10.222       53     20.4    2.081   -9.900     0.74    0.000    0.000        9        4     2038  Wheat_Multan_1Nov_7d13mm_45.PRM
  Tot(29)        1       11     2038     23.3    545.4   2965.3   457.00    299.0    322.3      0.0      0.0      0.0    117.3       61    198.5    196.1       61     0.000     0.000     0.000     0.000      139        0        0        0        1       43       32    11.158       56     24.7    2.752   -9.900     0.94    0.000    0.000       11        4     2039  Wheat_Multan_1Nov_7d13mm_45.PRM
  Tot(30)        1       11     2039     39.8    552.6   2961.3   459.50    286.0    325.8      0.0      0.0      0.0    111.8       59    212.5    214.9       63     0.000     0.000     0.000     0.000      136        0        0        0        0       37       31    11.769       61     23.9    2.818   -9.900     0.93    0.000    0.000        7        4     2040  Wheat_Multan_1Nov_7d13mm_45.PRM
  Tot(31)        1       11     2040     31.7    556.4   2953.5   462.00    286.0    317.7      0.0      0.0      0.0    128.3       59    185.7    185.7       59     0.000     0.000     0.000     0.000      135        0        0        0        0       47       35     9.734       50     23.3    2.272   -9.900     0.78    0.000    0.000        7        4     2041  Wheat_Multan_1Nov_7d13mm_45.PRM
  Tot(32)        1       11     2041     39.1    552.1   2954.9   464.50    286.0    325.1      0.0      0.0      0.0    118.4       58    205.1    205.1       61     0.000     0.000     0.000     0.000      135        0        0        0        0       41       31    11.140       58     22.9    2.548   -9.900     0.85    0.000    0.000        7        4     2042  Wheat_Multan_1Nov_7d13mm_45.PRM
  Tot(33)        1       11     2042     31.2    545.8   2973.5   467.50    299.0    330.2      0.0      0.0      0.0    113.0       58    207.3    204.7       61     0.000     0.000     0.000     0.000      138        0        0        0        0       38       31    11.976       61     24.3    2.908   -9.900     0.98    0.000    0.000       10        4     2043  Wheat_Multan_1Nov_7d13mm_45.PRM
  Tot(34)        1       11     2043     46.9    556.8   2964.4   470.00    299.0    345.2      0.7      0.0      0.0    123.2       60    214.1    214.5       65     0.000     0.000     0.000     0.000      139        0        0        0        0       45       29    12.005       60     25.3    3.033   -9.900     0.96    0.000    0.000       10        4     2044  Wheat_Multan_1Nov_7d13mm_45.PRM
  Tot(35)        1       11     2044     62.1    548.7   2963.2   472.50    286.0    348.1      0.0      0.0      0.0    132.3       65    213.3    215.5       66     0.000     0.000     0.000     0.000      134        0        0        0        0       42       28    11.489       59     24.9    2.863   -9.900     0.90    0.000    0.000        6        4     2045  Wheat_Multan_1Nov_7d13mm_45.PRM
  Tot(36)        1       11     2045     40.5    534.7   2971.0   475.00    286.0    326.4      0.1      0.0      0.0    121.2       61    200.6    200.5       64     0.000     0.000     0.000     0.000      135        0        0        0        0       44       30    11.194       57     28.1    3.145   -9.900     1.06    0.000    0.000        7        4     2046  Wheat_Multan_1Nov_7d13mm_45.PRM
  Tot(37)        1       11     2046     36.5    556.7   2955.3   477.50    286.0    322.0      0.5      0.0      0.0    126.5       59    192.2    192.1       59     0.000     0.000     0.000     0.000      134        0        0        0        0       45       34    10.373       53     22.5    2.331   -9.900     0.79    0.000    0.000        6        4     2047  Wheat_Multan_1Nov_7d13mm_45.PRM
  Tot(38)        1       11     2047     35.5    550.1   2956.0   480.00    286.0    321.3      0.2      0.0      0.0    121.8       61    196.2    195.9       62     0.000     0.000     0.000     0.000      140        0        0        0        0       46       33    10.996       55     25.9    2.848   -9.900     0.95    0.000    0.000        5        4     2048  Wheat_Multan_1Nov_7d13mm_45.PRM
  Tot(39)        1       11     2048     50.0    555.2   2966.6   482.50    286.0    334.2      1.8      0.0      0.0    128.1       62    199.0    199.2       62     0.000     0.000     0.000     0.000      136        0        0        0        0       46       32    11.021       55     28.6    3.152   -9.900     1.05    0.000    0.000        8        4     2049  Wheat_Multan_1Nov_7d13mm_45.PRM
  Tot(40)        1       11     2049     20.9    549.8   2959.4   485.50    286.0    306.9      0.0      0.0      0.0    120.5       57    182.7    181.4       57     0.000     0.000     0.000     0.000      133        0        0        0        0       45       35    10.413       53     20.9    2.173   -9.900     0.77    0.000    0.000        5        4     2050  Wheat_Multan_1Nov_7d13mm_45.PRM
  Tot(41)        1       11     2050     27.8    536.0   2956.7   488.00    286.0    313.8      0.0      0.0      0.0    123.0       61    188.5    189.9       60     0.000     0.000     0.000     0.000      135        0        0        0        0       47       34    10.704       54     25.5    2.724   -9.900     0.95    0.000    0.000        7        4     2051  Wheat_Multan_1Nov_7d13mm_45.PRM
  Tot(42)        1       11     2051     25.5    539.8   2968.2   490.50    286.0    311.5      0.0      0.0      0.0    118.2       58    184.1    181.4       58     0.000     0.000     0.000     0.000      131        0        0        0        0       43       34    10.599       55     21.1    2.238   -9.900     0.80    0.000    0.000        2        4     2052  Wheat_Multan_1Nov_7d13mm_45.PRM
  Tot(43)        1       11     2052     54.9    536.1   2970.0   493.00    286.0    340.9      0.0      0.0      0.0    111.7       59    222.3    223.7       71     0.000     0.000     0.000     0.000      141        0        0        0        0       41       25    12.975       64     32.7    4.245   -9.900     1.33    0.000    0.000        6        4     2053  Wheat_Multan_1Nov_7d13mm_45.PRM
  Tot(44)        1       11     2053     34.7    557.6   2958.5   495.00    286.0    320.7      0.0      0.0      0.0    118.7       59    196.1    196.7       58     0.000     0.000     0.000     0.000      133        0        0        0        0       37       33    11.486       58     20.8    2.395   -9.900     0.82    0.000    0.000        5        4     2054  Wheat_Multan_1Nov_7d13mm_45.PRM
  Tot(45)        1       11     2054     21.0    550.1   2967.9   497.00    286.0    307.0      0.0      0.0      0.0    118.5       59    187.2    187.8       59     0.000     0.000     0.000     0.000      135        0        0        0        0       42       34    10.930       55     22.1    2.413   -9.900     0.85    0.000    0.000        7        4     2055  Wheat_Multan_1Nov_7d13mm_45.PRM
  Tot(46)        1       11     2055     44.7    543.3   2958.3   499.50    286.0    330.7      0.0      0.0      0.0    116.7       55    208.1    206.0       67     0.000     0.000     0.000     0.000      133        0        0        0        0       45       27    11.799       60     25.1    2.959   -9.900     0.98    0.000    0.000        4        4     2056  Wheat_Multan_1Nov_7d13mm_45.PRM
  Tot(47)        1       11     2056     69.6    538.9   2959.6   502.00    286.0    355.6      0.0      0.0      0.0    120.6       65    224.6    225.5       69     0.000     0.000     0.000     0.000      142        0        0        0        0       40       27    13.217       64     31.0    4.102   -9.900     1.24    0.000    0.000        7        4     2057  Wheat_Multan_1Nov_7d13mm_45.PRM
  Tot(48)        1       11     2057     40.0    538.6   2969.6   504.00    286.0    326.0      0.0      0.0      0.0    112.5       58    212.0    213.2       67     0.000     0.000     0.000     0.000      135        0        0        0        0       43       28    12.376       62     26.5    3.273   -9.900     1.08    0.000    0.000        7        4     2058  Wheat_Multan_1Nov_7d13mm_45.PRM
  Tot(49)        1       11     2058     36.0    539.8   2969.2   506.00    286.0    322.0      0.0      0.0      0.0    112.6       57    204.0    201.5       65     0.000     0.000     0.000     0.000      132        0        0        0        0       36       29    12.128       61     23.8    2.890   -9.900     0.98    0.000    0.000        4        4     2059  Wheat_Multan_1Nov_7d13mm_45.PRM
  Tot(50)        1       11     2059     28.8    539.5   2955.7   508.00    286.0    314.8      0.0      0.0      0.0    117.5       59    195.5    198.0       62     0.000     0.000     0.000     0.000      134        0        0        0        0       42       31    11.499       57     23.7    2.729   -9.900     0.94    0.000    0.000        5        4     2060  Wheat_Multan_1Nov_7d13mm_45.PRM
  Tot(51)        1       11     2060     33.8    539.0   2962.2   510.00    286.0    318.6      1.2      0.0      0.0    123.1       59    185.5    183.0       59     0.000     0.000     0.000     0.000      132        0        0        0        0       47       34    10.669       54     22.2    2.364   -9.900     0.83    0.000    0.000        4        4     2061  Wheat_Multan_1Nov_7d13mm_45.PRM
  Tot(52)        1       11     2061     35.2    548.4   2971.7   512.00    286.0    321.2      0.0      0.0      0.0    128.5       60    186.6    186.4       59     0.000     0.000     0.000     0.000      132        0        0        0        0       47       34    10.551       53     22.7    2.399   -9.900     0.82    0.000    0.000        4        4     2062  Wheat_Multan_1Nov_7d13mm_45.PRM
  Tot(53)        1       11     2062      8.7    545.3   2963.7   513.50    286.0    294.7      0.0      0.0      0.0    113.8       56    178.2    180.4       56     0.000     0.000     0.000     0.000      133        0        0        0        0       46       36    10.430       52     22.0    2.298   -9.900     0.85    0.000    0.000        5        4     2063  Wheat_Multan_1Nov_7d13mm_45.PRM
  Tot(54)        1       11     2063     55.1    533.3   2961.0   515.00    286.0    341.1      0.0      0.0      0.0    122.1       59    206.6    204.7       68     0.000     0.000     0.000     0.000      132        0        0        0        0       47       27    11.868       60     28.0    3.323   -9.900     1.09    0.000    0.000        3        4     2064  Wheat_Multan_1Nov_7d13mm_45.PRM
  Tot(55)        1       11     2064     48.4    532.1   2966.1   517.00    286.0    334.3      0.1      0.0      0.0    108.2       58    220.3    220.9       69     0.000     0.000     0.000     0.000      133        0        0        0        0       30       25    13.111       66     26.3    3.452   -9.900     1.13    0.000    0.000        5        4     2065  Wheat_Multan_1Nov_7d13mm_45.PRM
  Tot(56)        1       11     2065     13.9    553.1   2965.8   518.50    286.0    299.9      0.0      0.0      0.0    121.2       60    174.9    175.4       55     0.000     0.000     0.000     0.000      133        0        0        0        0       44       37    10.255       51     21.3    2.180   -9.900     0.80    0.000    0.000        5        4     2066  Wheat_Multan_1Nov_7d13mm_45.PRM
  Tot(57)        1       11     2066     19.5    532.8   2955.4   519.50    286.0    305.5      0.0      0.0      0.0    116.6       61    180.9    180.8       58     0.000     0.000     0.000     0.000      139        0        0        0        0       46       35    10.846       53     26.0    2.823   -9.900     0.98    0.000    0.000        4        4     2067  Wheat_Multan_1Nov_7d13mm_45.PRM
  Tot(58)        1       11     2067     21.5    552.8   2969.8   521.00    286.0    307.5      0.0      0.0      0.0    114.3       58    190.6    191.7       59     0.000     0.000     0.000     0.000      141        0        0        0        0       46       35    11.472       55     26.7    3.063   -9.900     1.04    0.000    0.000        5        4     2068  Wheat_Multan_1Nov_7d13mm_45.PRM
  Tot(59)        1       11     2068     73.6    544.0   2969.2   522.50    286.0    359.3      0.3      0.0      0.0    117.7       56    234.6    232.6       74     0.000     0.000     0.000     0.000      133        0        0        0        0       41       23    13.311       66     29.2    3.888   -9.900     1.19    0.000    0.000        5        4     2069  Wheat_Multan_1Nov_7d13mm_45.PRM
  Tot(60)        1       11     2069     84.9    527.0   2951.3   523.50    273.0    357.9      0.0      0.0      0.0    124.6       62    230.0    231.7       73     0.000     0.000     0.000     0.000      129        0        0        0        0       36       22    13.413       69     25.4    3.411   -9.900     1.05    0.000    0.000        1        4     2070  Wheat_Multan_1Nov_7d13mm_45.PRM
  Tot(61)        1       11     2070     48.6    531.3   2952.5   524.50    286.0    332.7      1.9      0.0      0.0    117.3       59    205.8    204.9       65     0.000     0.000     0.000     0.000      133        0        0        0        0       47       29    11.955       59     26.7    3.186   -9.900     1.06    0.000    0.000        5        4     2071  Wheat_Multan_1Nov_7d13mm_45.PRM
  Tot(62)        1       11     2071     36.3    526.4   2956.0   526.00    273.0    309.3      0.0      0.0      0.0    120.5       61    186.0    187.0       61     0.000     0.000     0.000     0.000      127        0        0        0        0       43       33    10.661       55     23.8    2.540   -9.900     0.91    0.000    0.000       29        3     2072  Wheat_Multan_1Nov_7d13mm_45.PRM
  Tot(63)        1       11     2072     37.6    551.1   2969.5   527.00    286.0    323.6      0.0      0.0      0.0    120.0       60    202.8    203.1       62     0.000     0.000     0.000     0.000      136        0        0        0        0       37       30    12.813       62     23.3    2.981   -9.900     1.02    0.000    0.000        8        4     2073  Wheat_Multan_1Nov_7d13mm_45.PRM
  Tot(64)        1       11     2073     35.7    524.8   2957.2   527.50    273.0    308.7      0.0      0.0      0.0    125.4       61    181.3    181.3       60     0.000     0.000     0.000     0.000      130        0        0        0        0       43       33    10.977       55     23.8    2.609   -9.900     0.92    0.000    0.000        2        4     2074  Wheat_Multan_1Nov_7d13mm_45.PRM
  Tot(65)        1       11     2074     39.2    536.7   2958.7   528.50    286.0    325.2      0.0      0.0      0.0    117.9       57    202.4    199.8       64     0.000     0.000     0.000     0.000      132        0        0        0        0       41       29    12.182       61     24.6    2.997   -9.900     1.01    0.000    0.000        4        4     2075  Wheat_Multan_1Nov_7d13mm_45.PRM
  Tot(66)        1       11     2075     18.8    536.5   2965.7   529.50    273.0    291.8      0.0      0.0      0.0    123.6       58    166.7    169.2       55     0.000     0.000     0.000     0.000      130        0        0        0        0       46       37     9.946       50     20.1    2.001   -9.900     0.75    0.000    0.000        1        4     2076  Wheat_Multan_1Nov_7d13mm_45.PRM
  Tot(67)        1       11     2076     59.6    527.5   2970.7   530.00    286.0    345.1      0.5      0.0      0.0    130.9       64    203.7    201.5       69     0.000     0.000     0.000     0.000      132        0        0        0        0       47       27    11.569       58     26.2    3.034   -9.900     0.97    0.000    0.000        4        4     2077  Wheat_Multan_1Nov_7d13mm_45.PRM
  Tot(68)        1       11     2077     49.1    529.8   2959.1   530.50    273.0    322.1      0.0      0.0      0.0    129.3       64    191.4    193.6       64     0.000     0.000     0.000     0.000      130        0        0        0        0       42       30    11.503       58     25.1    2.885   -9.900     1.01    0.000    0.000        2        4     2078  Wheat_Multan_1Nov_7d13mm_45.PRM
  Tot(69)        1       11     2078     22.5    538.4   2952.9   531.00    286.0    308.5      0.0      0.0      0.0    120.2       56    178.5    175.8       59     0.000     0.000     0.000     0.000      131        0        0        0        0       47       33    10.577       53     23.7    2.506   -9.900     0.92    0.000    0.000        3        4     2079  Wheat_Multan_1Nov_7d13mm_45.PRM
  Tot(70)        1       11     2079     52.2    523.2   2960.9   531.00    273.0    324.9      0.3      0.0      0.0    110.1       56    202.7    203.0       67     0.000     0.000     0.000     0.000      130        0        0        0        0       43       28    11.864       60     27.1    3.213   -9.900     1.11    0.000    0.000        1        4     2080  Wheat_Multan_1Nov_7d13mm_45.PRM
  Tot(71)        1       11     2080     49.5    528.9   2970.1   531.00    286.0    335.5      0.0      0.0      0.0    112.9       58    212.8    212.4       66     0.000     0.000     0.000     0.000      131        0        0        0        0       38       27    12.918       65     24.8    3.205   -9.900     1.06    0.000    0.000        3        4     2081  Wheat_Multan_1Nov_7d13mm_45.PRM
  Tot(72)        1       11     2081     26.9    554.4   2971.6   531.00    286.0    312.9      0.0      0.0      0.0    130.1       59    170.0    170.4       55     0.000     0.000     0.000     0.000      131        0        0        0        0       50       38     9.518       48     20.2    1.919   -9.900     0.69    0.000    0.000        3        4     2082  Wheat_Multan_1Nov_7d13mm_45.PRM
  Tot(73)        1       11     2082     26.7    532.0   2973.3   531.50    273.0    299.7      0.0      0.0      0.0    117.1       58    180.5    182.7       60     0.000     0.000     0.000     0.000      129        0        0        0        0       43       33    10.881       55     23.7    2.578   -9.900     0.97    0.000    0.000        1        4     2083  Wheat_Multan_1Nov_7d13mm_45.PRM
  Tot(74)        1       11     2083     38.3    550.0   2967.9   532.00    286.0    324.3      0.0      0.0      0.0    128.0       59    193.9    193.6       61     0.000     0.000     0.000     0.000      134        0        0        0        0       43       31    11.650       57     23.4    2.732   -9.900     0.94    0.000    0.000        5        4     2084  Wheat_Multan_1Nov_7d13mm_45.PRM
  Tot(75)        1       11     2084     21.3    535.9   2973.7   532.00    273.0    294.3      0.0      0.0      0.0    114.7       55    174.8    175.1       58     0.000     0.000     0.000     0.000      129        0        0        0        0       47       35    10.149       51     23.6    2.395   -9.900     0.90    0.000    0.000        1        4     2085  Wheat_Multan_1Nov_7d13mm_45.PRM
  Tot(76)        1       11     2085     31.9    543.1   2968.4   532.00    286.0    317.9      0.0      0.0      0.0    126.3       60    180.9    179.8       59     0.000     0.000     0.000     0.000      139        0        0        0        0       46       34    10.776       52     26.1    2.810   -9.900     0.95    0.000    0.000        4        4     2086  Wheat_Multan_1Nov_7d13mm_45.PRM
  Tot(77)        1       11     2086     20.7    528.5   2955.1   532.50    273.0    293.7      0.0      0.0      0.0    113.3       58    176.4    177.2       59     0.000     0.000     0.000     0.000      135        0        0        0        0       49       36    10.391       51     27.4    2.849   -9.900     1.02    0.000    0.000       31        3     2087  Wheat_Multan_1Nov_7d13mm_45.PRM
  Tot(78)        1       11     2087     52.8    536.1   2963.2   533.00    273.0    325.6      0.2      0.0      0.0    120.9       55    202.0    201.9       68     0.000     0.000     0.000     0.000      130        0        0        0        0       46       28    11.636       58     26.5    3.089   -9.900     1.03    0.000    0.000        1        4     2088  Wheat_Multan_1Nov_7d13mm_45.PRM
  Tot(79)        1       11     2088     59.1    529.2   2962.9   533.00    286.0    345.1      0.0      0.0      0.0    110.0       56    223.5    221.2       70     0.000     0.000     0.000     0.000      131        0        0        0        0       42       26    13.229       66     27.6    3.649   -9.900     1.17    0.000    0.000        3        4     2089  Wheat_Multan_1Nov_7d13mm_45.PRM
  Tot(80)        1       11     2089     34.8    534.0   2957.2   533.50    273.0    307.8      0.0      0.0      0.0    119.7       58    183.0    185.0       61     0.000     0.000     0.000     0.000      130        0        0        0        0       45       32    10.598       54     24.5    2.600   -9.900     0.93    0.000    0.000        2        4     2090  Wheat_Multan_1Nov_7d13mm_45.PRM
  Tot(81)        1       11     2090     56.8    530.1   2961.5   534.00    286.0    342.7      0.1      0.0      0.0    117.4       57    208.3    206.7       69     0.000     0.000     0.000     0.000      131        0        0        0        0       45       27    12.376       62     28.4    3.519   -9.900     1.16    0.000    0.000        3        4     2091  Wheat_Multan_1Nov_7d13mm_45.PRM
  Tot(82)        1       11     2091     13.6    542.5   2960.3   534.50    273.0    286.6      0.0      0.0      0.0    120.3       56    165.9    168.2       54     0.000     0.000     0.000     0.000      130        0        0        0        0       48       37     9.770       49     21.0    2.053   -9.900     0.78    0.000    0.000        1        4     2092  Wheat_Multan_1Nov_7d13mm_45.PRM
  Tot(83)        1       11     2092     20.9    534.0   2967.7   535.00    286.0    306.9      0.0      0.0      0.0    113.3       58    181.0    179.8       59     0.000     0.000     0.000     0.000      138        0        0        0        0       46       35    10.841       53     28.5    3.088   -9.900     1.11    0.000    0.000        3        4     2093  Wheat_Multan_1Nov_7d13mm_45.PRM
  Tot(84)        1       11     2093     28.4    534.7   2963.6   535.00    273.0    301.4      0.0      0.0      0.0    126.8       56    163.0    161.9       57     0.000     0.000     0.000     0.000      127        0        0        0        0       49       36     9.202       47     23.5    2.158   -9.900     0.81    0.000    0.000       30        3     2094  Wheat_Multan_1Nov_7d13mm_45.PRM
  Tot(85)        1       11     2094     56.5    533.5   2953.6   535.50    286.0    342.5      0.0      0.0      0.0    105.7       55    230.7    230.1       71     0.000     0.000     0.000     0.000      132        0        0        0        0       28       23    14.275       70     26.4    3.762   -9.900     1.20    0.000    0.000        4        4     2095  Wheat_Multan_1Nov_7d13mm_45.PRM
  Tot(86)        1       11     2095     41.1    530.5   2956.3   536.00    286.0    327.1      0.0      0.0      0.0    117.7       65    203.8    205.7       65     0.000     0.000     0.000     0.000      140        0        0        0        0       43       30    12.698       60     28.8    3.652   -9.900     1.21    0.000    0.000        4        4     2096  Wheat_Multan_1Nov_7d13mm_45.PRM
  Tot(87)        1       11     2096     12.1    541.4   2964.8   536.50    286.0    298.1      0.0      0.0      0.0    115.8       57    171.8    170.4       56     0.000     0.000     0.000     0.000      131        0        0        0        0       45       36    10.250       51     21.5    2.206   -9.900     0.84    0.000    0.000        3        4     2097  Wheat_Multan_1Nov_7d13mm_45.PRM
  Tot(88)        1       11     2097     41.9    531.3   2958.5   537.00    273.0    314.9      0.0      0.0      0.0    115.5       59    196.8    199.3       63     0.000     0.000     0.000     0.000      127        0        0        0        0       37       31    11.642       60     22.6    2.628   -9.900     0.91    0.000    0.000       30        3     2098  Wheat_Multan_1Nov_7d13mm_45.PRM
  Tot(89)        1       11     2098     17.2    543.1   2975.0   537.50    273.0    290.2      0.0      0.0      0.0    122.4       56    167.3    167.3       56     0.000     0.000     0.000     0.000      128        0        0        0        0       44       36     9.906       50     22.5    2.224   -9.900     0.83    0.000    0.000       31        3     2099  Wheat_Multan_1Nov_7d13mm_45.PRM
