AquaCrop 7.1 (August 2023) - Output created on (date) : 05-12-2023   at (time) : 09:35:46

    RunNr     Day1   Month1    Year1     Rain      ETo       GD     CO2      Irri   Infilt   Runoff    Drain   Upflow        E     E/Ex       Tr      TrW   Tr/Trx    SaltIn   SaltOut    SaltUp  SaltProf     Cycle   SaltStr  FertStr  WeedStr  TempStr   ExpStr   StoStr  BioMass  Brelative   HI    Y(dry)  Y(fresh)    WPet      Bin     Bout     DayN   MonthN    YearN
                                           mm       mm  degC.day    ppm        mm       mm       mm       mm       mm       mm        %       mm       mm        %    ton/ha    ton/ha    ton/ha    ton/ha      days       %        %        %        %        %        %    ton/ha        %       %    ton/ha   ton/ha    kg/m3   ton/ha   ton/ha
   Tot(1)        1       11     2010     26.8    563.2   2967.7   390.74    300.0    326.8      0.0      0.0      0.0    113.7       58    210.7    213.1       60     0.000     0.000     0.000     0.000      147        0        0        0        0       40       33    10.574       57     25.1    2.650   -9.900     0.85    0.000    0.000       14        4     2011  Wheat_Multan_1Nov_8d15mm_45.PRM
   Tot(2)        1       11     2011     41.4    582.0   2958.6   392.73    315.0    356.4      0.0      0.0      0.0    112.7       58    230.9    229.0       61     0.000     0.000     0.000     0.000      151        0        0        0        1       36       31    11.399       61     24.1    2.747   -9.900     0.83    0.000    0.000       17        4     2012  Wheat_Multan_1Nov_8d15mm_45.PRM
   Tot(3)        1       11     2012     43.9    572.8   2974.2   395.15    300.0    343.5      0.4      0.0      0.0    110.9       57    226.5    228.4       63     0.000     0.000     0.000     0.000      148        0        0        0        1       41       30    11.243       61     28.5    3.202   -9.900     0.99    0.000    0.000       15        4     2013  Wheat_Multan_1Nov_8d15mm_45.PRM
   Tot(4)        1       11     2013     44.3    571.6   2952.7   397.51    300.0    344.3      0.0      0.0      0.0    114.8       58    225.9    225.9       62     0.000     0.000     0.000     0.000      148        0        0        0        1       35       29    11.719       63     24.5    2.867   -9.900     0.88    0.000    0.000       15        4     2014  Wheat_Multan_1Nov_8d15mm_45.PRM
   Tot(5)        1       11     2014     28.4    567.3   2956.0   399.27    300.0    328.4      0.0      0.0      0.0    106.8       55    217.3    216.5       61     0.000     0.000     0.000     0.000      146        0        0        0        0       36       30    11.287       60     23.8    2.689   -9.900     0.87    0.000    0.000       13        4     2015  Wheat_Multan_1Nov_8d15mm_45.PRM
   Tot(6)        1       11     2015     97.8    564.1   2958.1   401.00    300.0    397.3      0.5      0.0      0.0    112.3       61    279.6    280.4       75     0.000     0.000     0.000     0.000      147        0        0        0        0       28       21    14.036       75     28.9    4.055   -9.900     1.08    0.000    0.000       13        4     2016  Wheat_Multan_1Nov_8d15mm_45.PRM
   Tot(7)        1       11     2016     71.0    563.4   2953.7   403.00    300.0    370.5      0.5      0.0      0.0    103.6       55    260.9    260.9       72     0.000     0.000     0.000     0.000      147        0        0        0        0       28       23    13.533       71     29.7    4.016   -9.900     1.14    0.000    0.000       14        4     2017  Wheat_Multan_1Nov_8d15mm_45.PRM
   Tot(8)        1       11     2017     51.4    571.9   2952.2   405.50    300.0    350.3      1.1      0.0      0.0    113.3       56    227.9    227.6       65     0.000     0.000     0.000     0.000      145        0        0        0        0       45       30    11.014       59     28.4    3.123   -9.900     0.95    0.000    0.000       12        4     2018  Wheat_Multan_1Nov_8d15mm_45.PRM
   Tot(9)        1       11     2018     55.3    558.9   2969.6   408.00    300.0    355.3      0.0      0.0      0.0    117.2       62    233.2    233.0       66     0.000     0.000     0.000     0.000      145        0        0        0        1       35       27    12.039       65     25.7    3.096   -9.900     0.93    0.000    0.000       12        4     2019  Wheat_Multan_1Nov_8d15mm_45.PRM
  Tot(10)        1       11     2019     63.3    569.3   2956.7   410.00    300.0    363.2      0.1      0.0      0.0    120.5       61    239.2    239.8       66     0.000     0.000     0.000     0.000      147        0        0        0        0       41       29    12.231       64     26.3    3.220   -9.900     0.93    0.000    0.000       13        4     2020  Wheat_Multan_1Nov_8d15mm_45.PRM
  Tot(11)        1       11     2020     34.4    550.4   2954.9   412.00    300.0    334.4      0.0      0.0      0.0    108.2       59    220.9    219.4       63     0.000     0.000     0.000     0.000      144        0        0        0        0       38       30    11.665       62     25.2    2.938   -9.900     0.93    0.000    0.000       11        4     2021  Wheat_Multan_1Nov_8d15mm_45.PRM
  Tot(12)        1       11     2021     31.8    562.3   2964.5   414.50    300.0    331.8      0.0      0.0      0.0    102.2       54    220.7    220.4       63     0.000     0.000     0.000     0.000      143        0        0        0        0       34       29    11.517       62     24.2    2.784   -9.900     0.90    0.000    0.000       10        4     2022  Wheat_Multan_1Nov_8d15mm_45.PRM
  Tot(13)        1       11     2022     67.0    559.5   2956.1   417.00    300.0    366.7      0.3      0.0      0.0    108.1       57    248.5    249.0       72     0.000     0.000     0.000     0.000      145        0        0        0        0       35       23    13.054       68     31.9    4.158   -9.900     1.21    0.000    0.000       12        4     2023  Wheat_Multan_1Nov_8d15mm_45.PRM
  Tot(14)        1       11     2023     21.2    576.8   2969.6   419.00    300.0    321.2      0.0      0.0      0.0    114.9       59    203.8    205.2       59     0.000     0.000     0.000     0.000      149        0        0        0        1       41       35    10.907       56     24.6    2.679   -9.900     0.88    0.000    0.000       15        4     2024  Wheat_Multan_1Nov_8d15mm_45.PRM
  Tot(15)        1       11     2024     38.1    559.1   2958.3   421.50    300.0    338.0      0.1      0.0      0.0    110.7       56    216.9    215.2       64     0.000     0.000     0.000     0.000      143        0        0        0        0       42       30    11.073       58     26.1    2.888   -9.900     0.92    0.000    0.000       10        4     2025  Wheat_Multan_1Nov_8d15mm_45.PRM
  Tot(16)        1       11     2025     36.6    565.8   2962.6   424.00    300.0    336.6      0.0      0.0      0.0    111.0       56    222.4    223.6       64     0.000     0.000     0.000     0.000      145        0        0        0        0       38       29    11.991       62     25.7    3.082   -9.900     0.96    0.000    0.000       12        4     2026  Wheat_Multan_1Nov_8d15mm_45.PRM
  Tot(17)        1       11     2026     17.2    574.3   2955.0   426.50    300.0    317.2      0.0      0.0      0.0    115.4       60    198.8    199.3       55     0.000     0.000     0.000     0.000      146        0        0        0        1       39       35    10.882       56     21.5    2.344   -9.900     0.78    0.000    0.000       13        4     2027  Wheat_Multan_1Nov_8d15mm_45.PRM
  Tot(18)        1       11     2027     48.6    557.8   2972.7   429.00    285.0    333.2      0.4      0.0      0.0    111.4       56    220.0    220.0       65     0.000     0.000     0.000     0.000      141        0        0        0        0       44       31    11.059       58     27.4    3.030   -9.900     0.95    0.000    0.000        7        4     2028  Wheat_Multan_1Nov_8d15mm_45.PRM
  Tot(19)        1       11     2028     35.9    555.2   2958.2   431.50    300.0    335.9      0.0      0.0      0.0    107.2       59    221.9    220.4       64     0.000     0.000     0.000     0.000      144        0        0        0        0       40       30    11.938       62     26.0    3.105   -9.900     0.98    0.000    0.000       11        4     2029  Wheat_Multan_1Nov_8d15mm_45.PRM
  Tot(20)        1       11     2029     30.5    556.0   2952.9   434.00    300.0    330.5      0.0      0.0      0.0    111.6       58    215.3    216.2       63     0.000     0.000     0.000     0.000      145        0        0        0        1       33       29    12.036       61     23.7    2.857   -9.900     0.91    0.000    0.000       12        4     2030  Wheat_Multan_1Nov_8d15mm_45.PRM
  Tot(21)        1       11     2030     50.3    559.2   2959.0   436.50    300.0    350.3      0.0      0.0      0.0    110.1       60    232.4    232.9       67     0.000     0.000     0.000     0.000      153        0        0        0        0       41       28    12.949       64     33.6    4.351   -9.900     1.28    0.000    0.000       12        4     2031  Wheat_Multan_1Nov_8d15mm_45.PRM
  Tot(22)        1       11     2031     31.5    557.2   2954.1   439.00    300.0    331.5      0.0      0.0      0.0    109.8       55    208.5    206.9       60     0.000     0.000     0.000     0.000      142        0        0        0        0       41       33    11.174       58     23.9    2.669   -9.900     0.88    0.000    0.000        8        4     2032  Wheat_Multan_1Nov_8d15mm_45.PRM
  Tot(23)        1       11     2032     30.3    552.7   2965.5   441.50    300.0    330.2      0.1      0.0      0.0    106.8       55    210.4    210.5       63     0.000     0.000     0.000     0.000      142        0        0        0        0       41       32    11.313       58     26.5    2.997   -9.900     0.99    0.000    0.000        9        4     2033  Wheat_Multan_1Nov_8d15mm_45.PRM
  Tot(24)        1       11     2033     35.2    564.1   2961.2   444.00    300.0    335.2      0.0      0.0      0.0    104.4       54    214.4    214.5       64     0.000     0.000     0.000     0.000      143        0        0        0        0       38       29    11.951       61     24.9    2.973   -9.900     0.97    0.000    0.000       10        4     2034  Wheat_Multan_1Nov_8d15mm_45.PRM
  Tot(25)        1       11     2034     32.1    557.0   2963.0   446.50    300.0    332.0      0.1      0.0      0.0    104.0       55    219.0    218.5       63     0.000     0.000     0.000     0.000      143        0        0        0        0       39       31    12.159       61     25.3    3.082   -9.900     1.00    0.000    0.000       10        4     2035  Wheat_Multan_1Nov_8d15mm_45.PRM
  Tot(26)        1       11     2035     31.2    547.6   2956.4   449.00    300.0    331.2      0.0      0.0      0.0     99.9       52    217.0    217.4       66     0.000     0.000     0.000     0.000      142        0        0        0        0       38       30    11.800       60     27.5    3.246   -9.900     1.07    0.000    0.000        8        4     2036  Wheat_Multan_1Nov_8d15mm_45.PRM
  Tot(27)        1       11     2036     69.0    550.3   2964.9   451.50    300.0    369.0      0.0      0.0      0.0    122.3       65    232.9    234.4       72     0.000     0.000     0.000     0.000      151        0        0        0        0       43       25    12.964       64     37.0    4.791   -9.900     1.38    0.000    0.000       10        4     2037  Wheat_Multan_1Nov_8d15mm_45.PRM
  Tot(28)        1       11     2037     17.4    559.5   2969.9   454.50    300.0    317.4      0.0      0.0      0.0    107.9       54    196.1    194.7       58     0.000     0.000     0.000     0.000      142        0        0        0        0       41       34    11.036       56     24.2    2.675   -9.900     0.92    0.000    0.000        9        4     2038  Wheat_Multan_1Nov_8d15mm_45.PRM
  Tot(29)        1       11     2038     23.3    545.4   2965.3   457.00    300.0    323.3      0.0      0.0      0.0    107.0       58    208.7    208.8       64     0.000     0.000     0.000     0.000      144        0        0        0        1       43       31    11.767       58     29.1    3.430   -9.900     1.13    0.000    0.000       11        4     2039  Wheat_Multan_1Nov_8d15mm_45.PRM
  Tot(30)        1       11     2039     39.8    552.6   2961.3   459.50    285.0    324.8      0.0      0.0      0.0    101.4       55    221.5    223.0       66     0.000     0.000     0.000     0.000      141        0        0        0        0       38       29    12.277       62     28.1    3.449   -9.900     1.11    0.000    0.000        7        4     2040  Wheat_Multan_1Nov_8d15mm_45.PRM
  Tot(31)        1       11     2040     31.7    556.4   2953.5   462.00    285.0    316.7      0.0      0.0      0.0    112.3       54    202.1    202.0       61     0.000     0.000     0.000     0.000      140        0        0        0        0       47       34    10.651       54     27.7    2.951   -9.900     0.98    0.000    0.000        7        4     2041  Wheat_Multan_1Nov_8d15mm_45.PRM
  Tot(32)        1       11     2041     39.1    552.1   2954.9   464.50    285.0    324.1      0.0      0.0      0.0    105.5       55    215.4    215.1       64     0.000     0.000     0.000     0.000      140        0        0        0        0       41       29    11.839       60     25.9    3.067   -9.900     1.00    0.000    0.000        7        4     2042  Wheat_Multan_1Nov_8d15mm_45.PRM
  Tot(33)        1       11     2042     31.2    545.8   2973.5   467.50    300.0    331.2      0.0      0.0      0.0    109.6       57    210.8    209.5       63     0.000     0.000     0.000     0.000      143        0        0        0        0       40       31    12.204       60     26.8    3.272   -9.900     1.07    0.000    0.000       10        4     2043  Wheat_Multan_1Nov_8d15mm_45.PRM
  Tot(34)        1       11     2043     46.9    556.8   2964.4   470.00    300.0    346.9      0.0      0.0      0.0    111.8       57    225.3    225.7       66     0.000     0.000     0.000     0.000      144        0        0        0        0       43       29    12.829       62     30.8    3.951   -9.900     1.22    0.000    0.000       10        4     2044  Wheat_Multan_1Nov_8d15mm_45.PRM
  Tot(35)        1       11     2044     62.1    548.7   2963.2   472.50    285.0    347.1      0.0      0.0      0.0    115.4       59    227.7    228.7       68     0.000     0.000     0.000     0.000      139        0        0        0        0       40       27    12.402       63     28.5    3.529   -9.900     1.09    0.000    0.000        6        4     2045  Wheat_Multan_1Nov_8d15mm_45.PRM
  Tot(36)        1       11     2045     40.5    534.7   2971.0   475.00    285.0    325.2      0.3      0.0      0.0    108.2       58    212.6    212.6       67     0.000     0.000     0.000     0.000      140        0        0        0        0       39       28    11.987       60     31.6    3.793   -9.900     1.24    0.000    0.000        7        4     2046  Wheat_Multan_1Nov_8d15mm_45.PRM
  Tot(37)        1       11     2046     36.5    556.7   2955.3   477.50    285.0    319.6      1.9      0.0      0.0    118.0       57    194.4    194.7       59     0.000     0.000     0.000     0.000      139        0        0        0        0       43       35    10.725       54     26.7    2.864   -9.900     0.96    0.000    0.000        6        4     2047  Wheat_Multan_1Nov_8d15mm_45.PRM
  Tot(38)        1       11     2047     35.5    550.1   2956.0   480.00    285.0    320.5      0.0      0.0      0.0    111.2       56    205.9    206.0       62     0.000     0.000     0.000     0.000      139        0        0        0        0       43       32    11.393       57     26.1    2.978   -9.900     1.00    0.000    0.000        5        4     2048  Wheat_Multan_1Nov_8d15mm_45.PRM
  Tot(39)        1       11     2048     50.0    555.2   2966.6   482.50    285.0    333.2      1.8      0.0      0.0    123.6       60    203.3    203.3       62     0.000     0.000     0.000     0.000      141        0        0        0        0       46       33    11.420       56     29.5    3.365   -9.900     1.09    0.000    0.000        8        4     2049  Wheat_Multan_1Nov_8d15mm_45.PRM
  Tot(40)        1       11     2049     20.9    549.8   2959.4   485.50    285.0    305.9      0.0      0.0      0.0    104.7       52    197.3    196.8       60     0.000     0.000     0.000     0.000      138        0        0        0        0       41       33    11.339       57     25.6    2.904   -9.900     1.01    0.000    0.000        5        4     2050  Wheat_Multan_1Nov_8d15mm_45.PRM
  Tot(41)        1       11     2050     27.8    536.0   2956.7   488.00    285.0    312.8      0.0      0.0      0.0    111.9       58    198.4    198.9       60     0.000     0.000     0.000     0.000      140        0        0        0        0       41       34    11.549       57     26.8    3.094   -9.900     1.04    0.000    0.000        7        4     2051  Wheat_Multan_1Nov_8d15mm_45.PRM
  Tot(42)        1       11     2051     25.5    539.8   2968.2   490.50    285.0    310.5      0.0      0.0      0.0    111.1       55    192.6    191.0       61     0.000     0.000     0.000     0.000      136        0        0        0        0       42       32    11.110       56     25.3    2.810   -9.900     0.97    0.000    0.000        2        4     2052  Wheat_Multan_1Nov_8d15mm_45.PRM
  Tot(43)        1       11     2052     54.9    536.1   2970.0   493.00    285.0    339.9      0.0      0.0      0.0    113.5       55    218.2    219.7       72     0.000     0.000     0.000     0.000      147        0        0        0        0       40       25    12.973       63     36.5    4.730   -9.900     1.44    0.000    0.000        6        4     2053  Wheat_Multan_1Nov_8d15mm_45.PRM
  Tot(44)        1       11     2053     34.7    557.6   2958.5   495.00    285.0    319.6      0.1      0.0      0.0    107.9       56    207.5    207.6       61     0.000     0.000     0.000     0.000      138        0        0        0        0       33       32    12.151       60     24.9    3.024   -9.900     1.00    0.000    0.000        5        4     2054  Wheat_Multan_1Nov_8d15mm_45.PRM
  Tot(45)        1       11     2054     21.0    550.1   2967.9   497.00    285.0    306.0      0.0      0.0      0.0    107.3       55    197.0    197.1       59     0.000     0.000     0.000     0.000      140        0        0        0        0       40       34    11.618       57     24.0    2.793   -9.900     0.96    0.000    0.000        7        4     2055  Wheat_Multan_1Nov_8d15mm_45.PRM
  Tot(46)        1       11     2055     44.7    543.3   2958.3   499.50    285.0    329.7      0.0      0.0      0.0    111.4       54    212.6    211.3       68     0.000     0.000     0.000     0.000      138        0        0        0        0       43       28    12.149       60     28.9    3.516   -9.900     1.13    0.000    0.000        4        4     2056  Wheat_Multan_1Nov_8d15mm_45.PRM
  Tot(47)        1       11     2056     69.6    538.9   2959.6   502.00    285.0    354.6      0.0      0.0      0.0    115.7       63    233.9    234.5       71     0.000     0.000     0.000     0.000      140        0        0        0        0       35       25    13.657       66     31.5    4.301   -9.900     1.30    0.000    0.000        7        4     2057  Wheat_Multan_1Nov_8d15mm_45.PRM
  Tot(48)        1       11     2057     40.0    538.6   2969.6   504.00    285.0    324.9      0.1      0.0      0.0    104.7       56    218.5    219.2       67     0.000     0.000     0.000     0.000      140        0        0        0        0       41       29    12.923       63     27.3    3.525   -9.900     1.14    0.000    0.000        7        4     2058  Wheat_Multan_1Nov_8d15mm_45.PRM
  Tot(49)        1       11     2058     36.0    539.8   2969.2   506.00    285.0    320.9      0.1      0.0      0.0    104.3       54    213.0    212.4       66     0.000     0.000     0.000     0.000      137        0        0        0        0       36       29    12.711       63     27.6    3.504   -9.900     1.15    0.000    0.000        4        4     2059  Wheat_Multan_1Nov_8d15mm_45.PRM
  Tot(50)        1       11     2059     28.8    539.5   2955.7   508.00    285.0    313.4      0.4      0.0      0.0    111.5       58    201.8    202.4       62     0.000     0.000     0.000     0.000      139        0        0        0        0       42       32    12.021       58     25.6    3.077   -9.900     1.02    0.000    0.000        5        4     2060  Wheat_Multan_1Nov_8d15mm_45.PRM
  Tot(51)        1       11     2060     33.8    539.0   2962.2   510.00    285.0    318.7      0.1      0.0      0.0    110.0       56    204.6    203.8       64     0.000     0.000     0.000     0.000      137        0        0        0        0       43       30    11.790       58     27.4    3.227   -9.900     1.07    0.000    0.000        4        4     2061  Wheat_Multan_1Nov_8d15mm_45.PRM
  Tot(52)        1       11     2061     35.2    548.4   2971.7   512.00    285.0    320.2      0.0      0.0      0.0    123.2       60    192.6    193.1       60     0.000     0.000     0.000     0.000      137        0        0        0        0       44       34    11.019       54     25.3    2.784   -9.900     0.92    0.000    0.000        4        4     2062  Wheat_Multan_1Nov_8d15mm_45.PRM
  Tot(53)        1       11     2062      8.7    545.3   2963.7   513.50    285.0    293.7      0.0      0.0      0.0     99.2       52    191.9    192.1       60     0.000     0.000     0.000     0.000      138        0        0        0        0       43       34    11.300       55     27.3    3.083   -9.900     1.11    0.000    0.000        5        4     2063  Wheat_Multan_1Nov_8d15mm_45.PRM
  Tot(54)        1       11     2063     55.1    533.3   2961.0   515.00    285.0    339.6      0.5      0.0      0.0    113.5       58    218.5    217.1       69     0.000     0.000     0.000     0.000      137        0        0        0        0       44       26    12.660       62     29.6    3.746   -9.900     1.17    0.000    0.000        3        4     2064  Wheat_Multan_1Nov_8d15mm_45.PRM
  Tot(55)        1       11     2064     48.4    532.1   2966.1   517.00    285.0    333.4      0.0      0.0      0.0    100.2       55    227.6    228.9       69     0.000     0.000     0.000     0.000      138        0        0        0        0       30       26    13.723       67     29.9    4.106   -9.900     1.30    0.000    0.000        5        4     2065  Wheat_Multan_1Nov_8d15mm_45.PRM
  Tot(56)        1       11     2065     13.9    553.1   2965.8   518.50    285.0    298.9      0.0      0.0      0.0    112.6       56    184.2    184.4       56     0.000     0.000     0.000     0.000      138        0        0        0        0       42       36    10.902       53     24.2    2.633   -9.900     0.93    0.000    0.000        5        4     2066  Wheat_Multan_1Nov_8d15mm_45.PRM
  Tot(57)        1       11     2066     19.5    532.8   2955.4   519.50    285.0    304.5      0.0      0.0      0.0    105.4       57    193.3    191.7       60     0.000     0.000     0.000     0.000      137        0        0        0        0       41       33    11.428       56     26.4    3.021   -9.900     1.06    0.000    0.000        4        4     2067  Wheat_Multan_1Nov_8d15mm_45.PRM
  Tot(58)        1       11     2067     21.5    552.8   2969.8   521.00    285.0    306.5      0.0      0.0      0.0    106.8       55    197.8    199.4       59     0.000     0.000     0.000     0.000      139        0        0        0        0       40       34    11.877       57     24.4    2.897   -9.900     1.00    0.000    0.000        5        4     2068  Wheat_Multan_1Nov_8d15mm_45.PRM
  Tot(59)        1       11     2068     73.6    544.0   2969.2   522.50    285.0    357.9      0.7      0.0      0.0    113.0       57    238.4    237.8       75     0.000     0.000     0.000     0.000      138        0        0        0        0       41       23    13.711       66     31.5    4.315   -9.900     1.28    0.000    0.000        5        4     2069  Wheat_Multan_1Nov_8d15mm_45.PRM
  Tot(60)        1       11     2069     84.9    527.0   2951.3   523.50    285.0    369.7      0.2      0.0      0.0    120.2       61    231.7    230.2       75     0.000     0.000     0.000     0.000      134        0        0        0        0       40       22    13.612       68     28.8    3.923   -9.900     1.19    0.000    0.000        1        4     2070  Wheat_Multan_1Nov_8d15mm_45.PRM
  Tot(61)        1       11     2070     48.6    531.3   2952.5   524.50    285.0    333.2      0.4      0.0      0.0    113.2       59    209.3    210.9       66     0.000     0.000     0.000     0.000      138        0        0        0        0       43       30    12.305       59     30.4    3.737   -9.900     1.21    0.000    0.000        5        4     2071  Wheat_Multan_1Nov_8d15mm_45.PRM
  Tot(62)        1       11     2071     36.3    526.4   2956.0   526.00    270.0    306.2      0.1      0.0      0.0    105.5       57    197.6    198.2       61     0.000     0.000     0.000     0.000      132        0        0        0        0       39       34    11.567       59     26.5    3.060   -9.900     1.07    0.000    0.000       29        3     2072  Wheat_Multan_1Nov_8d15mm_45.PRM
  Tot(63)        1       11     2072     37.6    551.1   2969.5   527.00    285.0    322.6      0.0      0.0      0.0    110.2       57    211.6    211.6       62     0.000     0.000     0.000     0.000      141        0        0        0        0       37       31    13.444       63     25.4    3.409   -9.900     1.12    0.000    0.000        8        4     2073  Wheat_Multan_1Nov_8d15mm_45.PRM
  Tot(64)        1       11     2073     35.7    524.8   2957.2   527.50    285.0    320.7      0.0      0.0      0.0    114.8       59    193.2    191.5       63     0.000     0.000     0.000     0.000      135        0        0        0        0       42       32    11.662       57     27.1    3.161   -9.900     1.07    0.000    0.000        2        4     2074  Wheat_Multan_1Nov_8d15mm_45.PRM
  Tot(65)        1       11     2074     39.2    536.7   2958.7   528.50    285.0    324.2      0.0      0.0      0.0    110.4       55    209.5    210.2       67     0.000     0.000     0.000     0.000      137        0        0        0        0       39       28    12.579       61     28.6    3.592   -9.900     1.17    0.000    0.000        4        4     2075  Wheat_Multan_1Nov_8d15mm_45.PRM
  Tot(66)        1       11     2075     18.8    536.5   2965.7   529.50    285.0    303.8      0.0      0.0      0.0    107.8       53    185.4    184.7       61     0.000     0.000     0.000     0.000      135        0        0        0        0       47       34    11.015       54     25.8    2.847   -9.900     1.02    0.000    0.000        1        4     2076  Wheat_Multan_1Nov_8d15mm_45.PRM
  Tot(67)        1       11     2076     59.6    527.5   2970.7   530.00    285.0    344.1      0.5      0.0      0.0    113.0       60    218.5    218.5       70     0.000     0.000     0.000     0.000      137        0        0        0        0       42       25    12.664       62     29.5    3.736   -9.900     1.17    0.000    0.000        4        4     2077  Wheat_Multan_1Nov_8d15mm_45.PRM
  Tot(68)        1       11     2077     49.1    529.8   2959.1   530.50    285.0    334.1      0.0      0.0      0.0    115.9       61    206.1    205.8       66     0.000     0.000     0.000     0.000      135        0        0        0        0       41       29    12.334       61     28.5    3.520   -9.900     1.19    0.000    0.000        2        4     2078  Wheat_Multan_1Nov_8d15mm_45.PRM
  Tot(69)        1       11     2078     22.5    538.4   2952.9   531.00    285.0    307.5      0.0      0.0      0.0    113.3       55    187.8    187.8       61     0.000     0.000     0.000     0.000      136        0        0        0        0       43       32    11.176       55     27.1    3.024   -9.900     1.06    0.000    0.000        3        4     2079  Wheat_Multan_1Nov_8d15mm_45.PRM
  Tot(70)        1       11     2079     52.2    523.2   2960.9   531.00    285.0    336.3      0.9      0.0      0.0    104.9       55    207.2    207.4       67     0.000     0.000     0.000     0.000      135        0        0        0        0       42       29    12.332       61     29.7    3.657   -9.900     1.22    0.000    0.000        1        4     2080  Wheat_Multan_1Nov_8d15mm_45.PRM
  Tot(71)        1       11     2080     49.5    528.9   2970.1   531.00    285.0    334.5      0.0      0.0      0.0    110.2       56    215.3    215.2       69     0.000     0.000     0.000     0.000      136        0        0        0        0       42       27    13.005       64     30.2    3.924   -9.900     1.26    0.000    0.000        3        4     2081  Wheat_Multan_1Nov_8d15mm_45.PRM
  Tot(72)        1       11     2081     26.9    554.4   2971.6   531.00    285.0    311.9      0.0      0.0      0.0    118.3       57    178.8    179.1       57     0.000     0.000     0.000     0.000      136        0        0        0        0       45       36    10.271       50     23.7    2.432   -9.900     0.86    0.000    0.000        3        4     2082  Wheat_Multan_1Nov_8d15mm_45.PRM
  Tot(73)        1       11     2082     26.7    532.0   2973.3   531.50    285.0    311.7      0.0      0.0      0.0    108.1       58    190.5    190.2       60     0.000     0.000     0.000     0.000      134        0        0        0        0       40       34    11.723       58     23.4    2.739   -9.900     0.99    0.000    0.000        1        4     2083  Wheat_Multan_1Nov_8d15mm_45.PRM
  Tot(74)        1       11     2083     38.3    550.0   2967.9   532.00    285.0    323.3      0.0      0.0      0.0    117.3       57    203.7    205.3       63     0.000     0.000     0.000     0.000      139        0        0        0        0       40       31    12.399       59     25.8    3.194   -9.900     1.06    0.000    0.000        5        4     2084  Wheat_Multan_1Nov_8d15mm_45.PRM
  Tot(75)        1       11     2084     21.3    535.9   2973.7   532.00    285.0    306.3      0.0      0.0      0.0    107.6       54    184.9    183.4       61     0.000     0.000     0.000     0.000      134        0        0        0        0       48       34    10.735       53     27.3    2.932   -9.900     1.05    0.000    0.000        1        4     2085  Wheat_Multan_1Nov_8d15mm_45.PRM
  Tot(76)        1       11     2085     31.9    543.1   2968.4   532.00    285.0    316.9      0.0      0.0      0.0    110.4       58    201.9    202.7       64     0.000     0.000     0.000     0.000      137        0        0        0        0       40       30    11.969       59     27.8    3.324   -9.900     1.12    0.000    0.000        4        4     2086  Wheat_Multan_1Nov_8d15mm_45.PRM
  Tot(77)        1       11     2086     20.7    528.5   2955.1   532.50    270.0    290.7      0.0      0.0      0.0    109.2       55    179.7    180.5       60     0.000     0.000     0.000     0.000      133        0        0        0        0       47       35    10.573       53     25.7    2.720   -9.900     0.99    0.000    0.000       31        3     2087  Wheat_Multan_1Nov_8d15mm_45.PRM
  Tot(78)        1       11     2087     52.8    536.1   2963.2   533.00    285.0    337.7      0.1      0.0      0.0    107.4       52    210.5    208.9       69     0.000     0.000     0.000     0.000      135        0        0        0        0       46       27    12.338       61     30.1    3.716   -9.900     1.22    0.000    0.000        1        4     2088  Wheat_Multan_1Nov_8d15mm_45.PRM
  Tot(79)        1       11     2088     59.1    529.2   2962.9   533.00    285.0    343.9      0.2      0.0      0.0    105.9       56    229.6    229.3       72     0.000     0.000     0.000     0.000      136        0        0        0        0       42       25    13.687       67     31.8    4.348   -9.900     1.35    0.000    0.000        3        4     2089  Wheat_Multan_1Nov_8d15mm_45.PRM
  Tot(80)        1       11     2089     34.8    534.0   2957.2   533.50    285.0    319.8      0.0      0.0      0.0    110.0       55    197.0    197.1       64     0.000     0.000     0.000     0.000      135        0        0        0        0       45       30    11.424       56     27.9    3.191   -9.900     1.09    0.000    0.000        2        4     2090  Wheat_Multan_1Nov_8d15mm_45.PRM
  Tot(81)        1       11     2090     56.8    530.1   2961.5   534.00    285.0    341.4      0.4      0.0      0.0    113.2       55    208.0    208.1       68     0.000     0.000     0.000     0.000      136        0        0        0        0       47       29    12.601       62     29.2    3.683   -9.900     1.20    0.000    0.000        3        4     2091  Wheat_Multan_1Nov_8d15mm_45.PRM
  Tot(82)        1       11     2091     13.6    542.5   2960.3   534.50    285.0    298.6      0.0      0.0      0.0    117.2       57    172.0    171.9       57     0.000     0.000     0.000     0.000      135        0        0        0        0       46       36    10.230       50     23.8    2.433   -9.900     0.88    0.000    0.000        1        4     2092  Wheat_Multan_1Nov_8d15mm_45.PRM
  Tot(83)        1       11     2092     20.9    534.0   2967.7   535.00    285.0    305.9      0.0      0.0      0.0    109.5       58    188.8    189.1       61     0.000     0.000     0.000     0.000      136        0        0        0        0       42       32    11.353       56     26.4    2.996   -9.900     1.07    0.000    0.000        3        4     2093  Wheat_Multan_1Nov_8d15mm_45.PRM
  Tot(84)        1       11     2093     28.4    534.7   2963.6   535.00    270.0    298.4      0.0      0.0      0.0    114.0       53    176.3    176.2       60     0.000     0.000     0.000     0.000      132        0        0        0        0       48       35    10.066       51     27.5    2.770   -9.900     1.00    0.000    0.000       30        3     2094  Wheat_Multan_1Nov_8d15mm_45.PRM
  Tot(85)        1       11     2094     56.5    533.5   2953.6   535.50    285.0    341.5      0.0      0.0      0.0     99.6       52    237.5    238.5       73     0.000     0.000     0.000     0.000      137        0        0        0        0       25       22    14.809       71     30.1    4.453   -9.900     1.38    0.000    0.000        4        4     2095  Wheat_Multan_1Nov_8d15mm_45.PRM
  Tot(86)        1       11     2095     41.1    530.5   2956.3   536.00    285.0    326.1      0.0      0.0      0.0    106.0       60    213.1    213.5       70     0.000     0.000     0.000     0.000      146        0        0        0        0       38       27    13.428       63     35.7    4.793   -9.900     1.52    0.000    0.000        4        4     2096  Wheat_Multan_1Nov_8d15mm_45.PRM
  Tot(87)        1       11     2096     12.1    541.4   2964.8   536.50    285.0    297.1      0.0      0.0      0.0    111.9       58    179.4    178.1       57     0.000     0.000     0.000     0.000      136        0        0        0        0       44       36    10.699       52     22.8    2.435   -9.900     0.88    0.000    0.000        3        4     2097  Wheat_Multan_1Nov_8d15mm_45.PRM
  Tot(88)        1       11     2097     41.9    531.3   2958.5   537.00    270.0    311.9      0.0      0.0      0.0    104.2       55    203.5    205.0       64     0.000     0.000     0.000     0.000      132        0        0        0        0       42       31    12.096       61     25.7    3.114   -9.900     1.06    0.000    0.000       30        3     2098  Wheat_Multan_1Nov_8d15mm_45.PRM
  Tot(89)        1       11     2098     17.2    543.1   2975.0   537.50    270.0    287.2      0.0      0.0      0.0    106.3       51    179.7    179.7       59     0.000     0.000     0.000     0.000      133        0        0        0        0       46       35    10.757       53     25.2    2.706   -9.900     0.99    0.000    0.000       31        3     2099  Wheat_Multan_1Nov_8d15mm_45.PRM
