AquaCrop 7.1 (August 2023) - Output created on (date) : 01-12-2023   at (time) : 18:06:59

    RunNr     Day1   Month1    Year1     Rain      ETo       GD     CO2      Irri   Infilt   Runoff    Drain   Upflow        E     E/Ex       Tr      TrW   Tr/Trx    SaltIn   SaltOut    SaltUp  SaltProf     Cycle   SaltStr  FertStr  WeedStr  TempStr   ExpStr   StoStr  BioMass  Brelative   HI    Y(dry)  Y(fresh)    WPet      Bin     Bout     DayN   MonthN    YearN
                                           mm       mm  degC.day    ppm        mm       mm       mm       mm       mm       mm        %       mm       mm        %    ton/ha    ton/ha    ton/ha    ton/ha      days       %        %        %        %        %        %    ton/ha        %       %    ton/ha   ton/ha    kg/m3   ton/ha   ton/ha
   Tot(1)        1       11     2010     23.7    549.5   2959.7   390.74    299.0    322.7      0.0      0.0      0.0    117.0       59    201.7    200.4       61     0.000     0.000     0.000     0.000      141        0        0        0        0       43       32    10.119       57     23.8    2.408   -9.900     0.81    0.000    0.000       13        4     2011  Wheat_Multan_1Nov_7d13mm_85.PRM
   Tot(2)        1       11     2011     24.3    582.0   2957.1   392.73    299.0    323.3      0.0      0.0      0.0    114.4       57    208.9    210.2       59     0.000     0.000     0.000     0.000      144        0        0        0        1       41       33    10.446       57     23.1    2.412   -9.900     0.80    0.000    0.000       15        4     2012  Wheat_Multan_1Nov_7d13mm_85.PRM
   Tot(3)        1       11     2012      8.8    576.0   2966.2   395.15    299.0    307.8      0.0      0.0      0.0    105.8       56    201.3    201.3       56     0.000     0.000     0.000     0.000      143        0        0        0        1       39       34    10.241       56     20.7    2.117   -9.900     0.74    0.000    0.000       15        4     2013  Wheat_Multan_1Nov_7d13mm_85.PRM
   Tot(4)        1       11     2013     60.5    567.4   2970.8   397.51    299.0    359.5      0.0      0.0      0.0    117.1       62    237.4    235.4       67     0.000     0.000     0.000     0.000      143        0        0        0        1       29       25    12.126       66     24.7    2.998   -9.900     0.90    0.000    0.000       15        4     2014  Wheat_Multan_1Nov_7d13mm_85.PRM
   Tot(5)        1       11     2014     28.0    575.4   2971.4   400.27    299.0    327.0      0.0      0.0      0.0    127.6       60    198.5    200.5       56     0.000     0.000     0.000     0.000      141        0        0        0        0       42       35     9.855       54     21.3    2.100   -9.900     0.69    0.000    0.000       13        4     2015  Wheat_Multan_1Nov_7d13mm_85.PRM
   Tot(6)        1       11     2015     17.4    559.4   2969.1   403.00    299.0    316.4      0.0      0.0      0.0    127.1       59    187.2    187.2       58     0.000     0.000     0.000     0.000      141        0        0        0        0       47       35     9.379       51     23.8    2.230   -9.900     0.76    0.000    0.000       12        4     2016  Wheat_Multan_1Nov_7d13mm_85.PRM
   Tot(7)        1       11     2016     25.7    560.5   2955.9   405.50    286.0    311.7      0.0      0.0      0.0    119.0       59    188.3    186.8       56     0.000     0.000     0.000     0.000      137        0        0        0        0       42       36     9.574       53     19.1    1.833   -9.900     0.64    0.000    0.000        9        4     2017  Wheat_Multan_1Nov_7d13mm_85.PRM
   Tot(8)        1       11     2017     16.1    565.9   2962.1   408.50    299.0    315.1      0.0      0.0      0.0    117.8       59    190.3    189.4       56     0.000     0.000     0.000     0.000      140        0        0        0        0       42       34     9.793       53     20.8    2.036   -9.900     0.71    0.000    0.000       12        4     2018  Wheat_Multan_1Nov_7d13mm_85.PRM
   Tot(9)        1       11     2018     46.6    557.6   2969.2   411.50    299.0    345.5      0.1      0.0      0.0    120.9       60    214.5    214.7       64     0.000     0.000     0.000     0.000      138        0        0        0        0       39       29    11.039       60     23.2    2.561   -9.900     0.82    0.000    0.000       10        4     2019  Wheat_Multan_1Nov_7d13mm_85.PRM
  Tot(10)        1       11     2019     19.4    558.6   2962.0   414.50    299.0    318.4      0.0      0.0      0.0    123.9       58    189.0    189.1       59     0.000     0.000     0.000     0.000      139        0        0        0        0       45       34     9.627       52     23.3    2.240   -9.900     0.77    0.000    0.000       10        4     2020  Wheat_Multan_1Nov_7d13mm_85.PRM
  Tot(11)        1       11     2020     25.7    567.6   2965.8   417.50    299.0    324.7      0.0      0.0      0.0    124.9       63    198.1    200.4       58     0.000     0.000     0.000     0.000      141        0        0        0        0       41       34    10.316       55     21.5    2.217   -9.900     0.75    0.000    0.000       13        4     2021  Wheat_Multan_1Nov_7d13mm_85.PRM
  Tot(12)        1       11     2021     25.2    572.3   2970.5   420.50    299.0    324.2      0.0      0.0      0.0    120.0       59    201.2    200.5       59     0.000     0.000     0.000     0.000      141        0        0        0        0       42       33    10.510       56     23.5    2.472   -9.900     0.83    0.000    0.000       13        4     2022  Wheat_Multan_1Nov_7d13mm_85.PRM
  Tot(13)        1       11     2022     14.9    567.7   2970.0   423.50    299.0    313.9      0.0      0.0      0.0    123.8       60    180.9    179.1       53     0.000     0.000     0.000     0.000      138        0        0        0        0       44       38     9.454       51     18.6    1.755   -9.900     0.62    0.000    0.000       10        4     2023  Wheat_Multan_1Nov_7d13mm_85.PRM
  Tot(14)        1       11     2023     44.9    564.4   2959.9   426.50    299.0    343.9      0.0      0.0      0.0    114.3       60    228.6    231.1       65     0.000     0.000     0.000     0.000      144        0        0        0        1       31       27    12.569       65     23.3    2.933   -9.900     0.91    0.000    0.000       15        4     2024  Wheat_Multan_1Nov_7d13mm_85.PRM
  Tot(15)        1       11     2024     29.3    561.6   2966.3   429.50    299.0    328.3      0.0      0.0      0.0    121.2       60    197.9    195.5       59     0.000     0.000     0.000     0.000      137        0        0        0        0       39       34    10.357       55     21.5    2.225   -9.900     0.75    0.000    0.000       10        4     2025  Wheat_Multan_1Nov_7d13mm_85.PRM
  Tot(16)        1       11     2025     64.6    563.0   2973.7   433.00    299.0    362.3      1.3      0.0      0.0    123.4       60    232.2    234.5       69     0.000     0.000     0.000     0.000      141        0        0        0        1       41       26    12.307       64     28.8    3.543   -9.900     1.07    0.000    0.000       13        4     2026  Wheat_Multan_1Nov_7d13mm_85.PRM
  Tot(17)        1       11     2026     96.8    546.7   2954.8   436.50    286.0    382.7      0.1      0.0      0.0    117.2       62    258.8    258.8       70     0.000     0.000     0.000     0.000      136        0        0        0        0       17       22    13.955       74     29.3    4.085   -9.900     1.17    0.000    0.000        8        4     2027  Wheat_Multan_1Nov_7d13mm_85.PRM
  Tot(18)        1       11     2027     34.6    549.0   2953.6   440.00    299.0    333.6      0.0      0.0      0.0    130.8       63    189.5    189.6       62     0.000     0.000     0.000     0.000      152        0        0        0        0       51       34    10.407       52     34.4    3.582   -9.900     1.15    0.000    0.000        9        4     2028  Wheat_Multan_1Nov_7d13mm_85.PRM
  Tot(19)        1       11     2028     26.5    566.7   2959.4   443.50    299.0    325.5      0.0      0.0      0.0    127.6       63    190.2    188.1       56     0.000     0.000     0.000     0.000      139        0        0        0        0       43       35    10.429       54     21.8    2.269   -9.900     0.77    0.000    0.000       11        4     2029  Wheat_Multan_1Nov_7d13mm_85.PRM
  Tot(20)        1       11     2029     65.7    553.5   2973.9   447.00    286.0    350.8      0.9      0.0      0.0    131.0       62    215.7    217.9       67     0.000     0.000     0.000     0.000      135        0        0        0        0       46       29    11.185       59     24.7    2.767   -9.900     0.87    0.000    0.000        7        4     2030  Wheat_Multan_1Nov_7d13mm_85.PRM
  Tot(21)        1       11     2030     23.1    553.2   2959.9   450.50    286.0    309.1      0.0      0.0      0.0    122.8       60    182.9    182.6       57     0.000     0.000     0.000     0.000      142        0        0        0        0       45       35     9.939       51     24.5    2.435   -9.900     0.82    0.000    0.000        7        4     2031  Wheat_Multan_1Nov_7d13mm_85.PRM
  Tot(22)        1       11     2031     29.7    551.5   2959.4   454.00    299.0    328.7      0.0      0.0      0.0    114.7       58    205.2    202.7       61     0.000     0.000     0.000     0.000      138        0        0        0        1       35       30    11.825       60     22.4    2.644   -9.900     0.89    0.000    0.000        9        4     2032  Wheat_Multan_1Nov_7d13mm_85.PRM
  Tot(23)        1       11     2032     34.6    544.0   2963.3   458.00    286.0    320.6      0.0      0.0      0.0    110.4       59    207.6    210.1       62     0.000     0.000     0.000     0.000      135        0        0        0        0       35       30    11.640       61     23.2    2.702   -9.900     0.92    0.000    0.000        7        4     2033  Wheat_Multan_1Nov_7d13mm_85.PRM
  Tot(24)        1       11     2033     25.2    544.5   2958.3   462.00    286.0    311.2      0.0      0.0      0.0    119.3       61    189.9    190.4       58     0.000     0.000     0.000     0.000      144        0        0        0        0       44       36    10.909       54     28.1    3.060   -9.900     1.04    0.000    0.000        9        4     2034  Wheat_Multan_1Nov_7d13mm_85.PRM
  Tot(25)        1       11     2034     19.9    544.6   2953.2   466.00    286.0    305.9      0.0      0.0      0.0    111.6       59    192.2    192.1       58     0.000     0.000     0.000     0.000      136        0        0        0        0       41       35    10.926       56     23.5    2.573   -9.900     0.92    0.000    0.000        8        4     2035  Wheat_Multan_1Nov_7d13mm_85.PRM
  Tot(26)        1       11     2035     35.0    537.9   2958.6   470.00    286.0    321.0      0.0      0.0      0.0    119.1       57    191.8    189.4       61     0.000     0.000     0.000     0.000      134        0        0        0        0       45       32    10.736       55     23.7    2.545   -9.900     0.88    0.000    0.000        5        4     2036  Wheat_Multan_1Nov_7d13mm_85.PRM
  Tot(27)        1       11     2036     16.6    549.9   2971.8   474.00    286.0    302.6      0.0      0.0      0.0    122.1       56    174.4    174.4       56     0.000     0.000     0.000     0.000      134        0        0        0        0       49       37     9.478       49     23.2    2.200   -9.900     0.80    0.000    0.000        6        4     2037  Wheat_Multan_1Nov_7d13mm_85.PRM
  Tot(28)        1       11     2037     35.9    547.0   2967.5   478.50    286.0    321.9      0.0      0.0      0.0    120.1       60    199.5    202.0       62     0.000     0.000     0.000     0.000      137        0        0        0        0       38       31    11.573       58     23.6    2.728   -9.900     0.94    0.000    0.000        9        4     2038  Wheat_Multan_1Nov_7d13mm_85.PRM
  Tot(29)        1       11     2038     53.4    549.3   2972.5   483.00    286.0    339.3      0.1      0.0      0.0    121.7       61    210.5    210.2       64     0.000     0.000     0.000     0.000      135        0        0        0        0       39       29    11.954       61     28.4    3.392   -9.900     1.09    0.000    0.000        7        4     2039  Wheat_Multan_1Nov_7d13mm_85.PRM
  Tot(30)        1       11     2039     56.7    535.8   2955.7   487.00    286.0    342.7      0.0      0.0      0.0    123.9       68    210.0    209.1       64     0.000     0.000     0.000     0.000      140        0        0        0        0       39       31    12.277       61     29.2    3.582   -9.900     1.15    0.000    0.000        4        4     2040  Wheat_Multan_1Nov_7d13mm_85.PRM
  Tot(31)        1       11     2040     79.8    541.6   2968.2   491.50    286.0    364.4      1.4      0.0      0.0    129.4       63    215.4    214.4       69     0.000     0.000     0.000     0.000      134        0        0        0        0       44       26    11.765       60     26.5    3.123   -9.900     0.97    0.000    0.000        6        4     2041  Wheat_Multan_1Nov_7d13mm_85.PRM
  Tot(32)        1       11     2041     14.7    546.9   2954.0   496.50    286.0    300.7      0.0      0.0      0.0    109.1       56    190.4    192.6       59     0.000     0.000     0.000     0.000      135        0        0        0        0       42       33    11.347       57     23.2    2.631   -9.900     0.95    0.000    0.000        7        4     2042  Wheat_Multan_1Nov_7d13mm_85.PRM
  Tot(33)        1       11     2042     32.2    551.0   2972.7   501.50    286.0    318.1      0.1      0.0      0.0    123.2       60    194.2    194.2       62     0.000     0.000     0.000     0.000      135        0        0        0        1       45       32    11.068       55     24.8    2.741   -9.900     0.93    0.000    0.000        7        4     2043  Wheat_Multan_1Nov_7d13mm_85.PRM
  Tot(34)        1       11     2043     20.5    541.8   2953.5   506.00    286.0    306.5      0.0      0.0      0.0    132.7       62    167.3    164.7       56     0.000     0.000     0.000     0.000      132        0        0        0        0       49       37     9.499       48     20.9    1.982   -9.900     0.71    0.000    0.000        3        4     2044  Wheat_Multan_1Nov_7d13mm_85.PRM
  Tot(35)        1       11     2044     36.6    544.6   2962.4   510.50    286.0    322.6      0.0      0.0      0.0    102.3       58    217.8    220.2       63     0.000     0.000     0.000     0.000      143        0        0        0        0       34       29    13.629       65     25.6    3.483   -9.900     1.13    0.000    0.000        8        4     2045  Wheat_Multan_1Nov_7d13mm_85.PRM
  Tot(36)        1       11     2045     19.6    550.2   2972.0   516.00    286.0    305.6      0.0      0.0      0.0    112.8       55    190.3    190.1       61     0.000     0.000     0.000     0.000      134        0        0        0        0       44       32    11.308       56     24.4    2.755   -9.900     0.98    0.000    0.000        6        4     2046  Wheat_Multan_1Nov_7d13mm_85.PRM
  Tot(37)        1       11     2046     44.4    538.0   2955.2   521.50    286.0    330.4      0.0      0.0      0.0    112.5       62    213.0    212.8       66     0.000     0.000     0.000     0.000      141        0        0        0        0       43       29    12.904       62     29.3    3.777   -9.900     1.21    0.000    0.000        6        4     2047  Wheat_Multan_1Nov_7d13mm_85.PRM
  Tot(38)        1       11     2047     36.0    539.7   2951.4   526.50    286.0    322.0      0.0      0.0      0.0    127.5       64    188.7    186.8       61     0.000     0.000     0.000     0.000      132        0        0        0        0       46       33    10.819       54     23.8    2.570   -9.900     0.89    0.000    0.000        3        4     2048  Wheat_Multan_1Nov_7d13mm_85.PRM
  Tot(39)        1       11     2048     29.0    545.7   2962.6   532.00    286.0    315.0      0.0      0.0      0.0    118.2       61    195.3    197.8       61     0.000     0.000     0.000     0.000      134        0        0        0        0       35       31    12.134       59     20.9    2.535   -9.900     0.90    0.000    0.000        6        4     2049  Wheat_Multan_1Nov_7d13mm_85.PRM
  Tot(40)        1       11     2049     59.0    536.8   2966.1   538.00    286.0    344.9      0.1      0.0      0.0    124.8       59    211.7    208.9       67     0.000     0.000     0.000     0.000      132        0        0        0        0       45       28    12.237       60     26.8    3.285   -9.900     1.06    0.000    0.000        4        4     2050  Wheat_Multan_1Nov_7d13mm_85.PRM
  Tot(41)        1       11     2050     31.9    532.4   2973.3   543.50    286.0    317.9      0.0      0.0      0.0    110.1       56    198.3    198.5       64     0.000     0.000     0.000     0.000      131        0        0        0        0       39       29    12.404       61     24.5    3.037   -9.900     1.08    0.000    0.000        3        4     2051  Wheat_Multan_1Nov_7d13mm_85.PRM
  Tot(42)        1       11     2051     88.2    544.1   2972.1   549.00    286.0    370.7      3.5      0.0      0.0    125.8       59    229.9    231.0       75     0.000     0.000     0.000     0.000      135        0        0        0        0       46       23    13.130       63     29.0    3.801   -9.900     1.14    0.000    0.000        6        4     2052  Wheat_Multan_1Nov_7d13mm_85.PRM
  Tot(43)        1       11     2052     70.4    537.0   2952.5   555.00    286.0    356.0      0.4      0.0      0.0    113.6       58    219.2    218.0       68     0.000     0.000     0.000     0.000      132        0        0        0        0       35       26    13.263       65     25.0    3.314   -9.900     1.07    0.000    0.000        4        4     2053  Wheat_Multan_1Nov_7d13mm_85.PRM
  Tot(44)        1       11     2053     36.5    528.5   2956.9   561.00    273.0    309.5      0.0      0.0      0.0    125.0       59    175.9    176.2       60     0.000     0.000     0.000     0.000      126        0        0        0        0       48       33    10.131       52     24.4    2.469   -9.900     0.89    0.000    0.000       29        3     2054  Wheat_Multan_1Nov_7d13mm_85.PRM
  Tot(45)        1       11     2054     40.8    517.8   2966.7   567.50    273.0    313.8      0.0      0.0      0.0    111.1       61    199.0    200.9       66     0.000     0.000     0.000     0.000      133        0        0        0        0       43       30    12.141       60     31.0    3.758   -9.900     1.27    0.000    0.000       30        3     2055  Wheat_Multan_1Nov_7d13mm_85.PRM
  Tot(46)        1       11     2055     37.4    539.5   2959.1   574.00    273.0    310.3      0.1      0.0      0.0    116.1       57    187.9    188.3       60     0.000     0.000     0.000     0.000      130        0        0        0        0       45       33    11.427       56     25.0    2.854   -9.900     1.01    0.000    0.000        1        4     2056  Wheat_Multan_1Nov_7d13mm_85.PRM
  Tot(47)        1       11     2056     38.6    527.0   2957.3   580.00    273.0    311.6      0.0      0.0      0.0    118.3       60    190.9    190.8       62     0.000     0.000     0.000     0.000      128        0        0        0        0       38       31    11.757       59     24.0    2.818   -9.900     0.99    0.000    0.000       31        3     2057  Wheat_Multan_1Nov_7d13mm_85.PRM
  Tot(48)        1       11     2057     31.4    538.1   2952.9   586.50    273.0    304.4      0.0      0.0      0.0    128.3       59    172.7    172.0       58     0.000     0.000     0.000     0.000      130        0        0        0        0       48       36    10.635       52     22.8    2.428   -9.900     0.87    0.000    0.000        2        4     2058  Wheat_Multan_1Nov_7d13mm_85.PRM
  Tot(49)        1       11     2058     12.1    539.5   2975.1   593.50    286.0    298.1      0.0      0.0      0.0    122.1       59    169.3    167.9       57     0.000     0.000     0.000     0.000      132        0        0        0        0       46       35    10.641       51     21.5    2.283   -9.900     0.85    0.000    0.000        4        4     2059  Wheat_Multan_1Nov_7d13mm_85.PRM
  Tot(50)        1       11     2059     43.9    530.9   2951.7   600.50    273.0    316.7      0.2      0.0      0.0    119.8       58    187.9    187.6       63     0.000     0.000     0.000     0.000      128        0        0        0        0       37       30    11.863       58     24.1    2.863   -9.900     1.00    0.000    0.000       30        3     2060  Wheat_Multan_1Nov_7d13mm_85.PRM
  Tot(51)        1       11     2060     35.6    525.6   2960.0   607.50    273.0    308.6      0.0      0.0      0.0    135.4       70    171.5    174.0       58     0.000     0.000     0.000     0.000      128        0        0        0        0       42       34    11.048       54     21.2    2.345   -9.900     0.89    0.000    0.000       31        3     2061  Wheat_Multan_1Nov_7d13mm_85.PRM
  Tot(52)        1       11     2061     73.9    526.0   2963.3   614.50    273.0    346.7      0.2      0.0      0.0    130.7       60    213.2    212.7       76     0.000     0.000     0.000     0.000      128        0        0        0        0       45       22    13.073       64     29.7    3.879   -9.900     1.22    0.000    0.000       31        3     2062  Wheat_Multan_1Nov_7d13mm_85.PRM
  Tot(53)        1       11     2062     64.5    519.5   2970.9   621.50    273.0    337.5      0.0      0.0      0.0    131.0       73    201.0    201.4       66     0.000     0.000     0.000     0.000      136        0        0        0        0       37       29    13.658       64     30.1    4.107   -9.900     1.37    0.000    0.000        1        4     2063  Wheat_Multan_1Nov_7d13mm_85.PRM
  Tot(54)        1       11     2063     39.1    542.3   2966.8   628.50    273.0    311.6      0.5      0.0      0.0    117.7       56    191.4    191.5       63     0.000     0.000     0.000     0.000      130        0        0        0        0       40       31    12.211       59     24.0    2.928   -9.900     1.04    0.000    0.000        1        4     2064  Wheat_Multan_1Nov_7d13mm_85.PRM
  Tot(55)        1       11     2064     38.4    516.0   2970.7   635.50    273.0    311.4      0.0      0.0      0.0    119.6       64    183.8    182.8       63     0.000     0.000     0.000     0.000      134        0        0        0        0       43       31    11.978       57     30.8    3.693   -9.900     1.30    0.000    0.000       30        3     2065  Wheat_Multan_1Nov_7d13mm_85.PRM
  Tot(56)        1       11     2065     30.8    531.8   2963.7   643.00    273.0    303.8      0.0      0.0      0.0    120.6       58    180.9    181.7       61     0.000     0.000     0.000     0.000      128        0        0        0        0       39       32    11.791       57     22.9    2.704   -9.900     0.97    0.000    0.000       31        3     2066  Wheat_Multan_1Nov_7d13mm_85.PRM
  Tot(57)        1       11     2066     36.7    511.5   2971.5   650.50    260.0    296.7      0.0      0.0      0.0    115.3       57    170.3    168.6       63     0.000     0.000     0.000     0.000      122        0        0        0        0       48       32    10.496       54     25.9    2.719   -9.900     1.04    0.000    0.000       25        3     2067  Wheat_Multan_1Nov_7d13mm_85.PRM
  Tot(58)        1       11     2067     19.3    541.9   2968.9   658.00    273.0    292.3      0.0      0.0      0.0    128.8       59    162.3    164.3       56     0.000     0.000     0.000     0.000      128        0        0        0        0       46       37    10.186       49     21.7    2.208   -9.900     0.82    0.000    0.000       30        3     2068  Wheat_Multan_1Nov_7d13mm_85.PRM
  Tot(59)        1       11     2068     22.0    537.6   2974.8   665.50    273.0    295.0      0.0      0.0      0.0    123.5       56    168.3    167.3       60     0.000     0.000     0.000     0.000      127        0        0        0        0       47       34    10.503       51     22.8    2.395   -9.900     0.89    0.000    0.000       30        3     2069  Wheat_Multan_1Nov_7d13mm_85.PRM
  Tot(60)        1       11     2069     23.5    534.5   2970.8   673.00    273.0    296.5      0.0      0.0      0.0    122.4       57    169.9    169.3       57     0.000     0.000     0.000     0.000      126        0        0        0        0       43       35    10.863       53     22.3    2.420   -9.900     0.91    0.000    0.000       29        3     2070  Wheat_Multan_1Nov_7d13mm_85.PRM
  Tot(61)        1       11     2070     25.3    524.5   2958.4   681.00    260.0    285.3      0.0      0.0      0.0    117.7       53    165.4    166.9       62     0.000     0.000     0.000     0.000      123        0        0        0        0       49       32    10.560       53     24.5    2.588   -9.900     1.00    0.000    0.000       26        3     2071  Wheat_Multan_1Nov_7d13mm_85.PRM
  Tot(62)        1       11     2071     54.1    518.5   2958.0   689.00    273.0    327.1      0.0      0.0      0.0    109.7       55    204.2    201.6       70     0.000     0.000     0.000     0.000      124        0        0        0        0       30       24    13.346       67     24.5    3.275   -9.900     1.13    0.000    0.000       26        3     2072  Wheat_Multan_1Nov_7d13mm_85.PRM
  Tot(63)        1       11     2072     22.6    530.5   2954.0   697.00    273.0    295.6      0.0      0.0      0.0    127.2       57    158.7    158.8       58     0.000     0.000     0.000     0.000      124        0        0        0        0       50       35     9.903       49     21.0    2.080   -9.900     0.79    0.000    0.000       27        3     2073  Wheat_Multan_1Nov_7d13mm_85.PRM
  Tot(64)        1       11     2073     39.8    518.4   2952.9   705.00    260.0    299.8      0.0      0.0      0.0    117.0       58    181.0    183.6       63     0.000     0.000     0.000     0.000      122        0        0        0        0       37       30    11.762       59     23.2    2.728   -9.900     1.02    0.000    0.000       25        3     2074  Wheat_Multan_1Nov_7d13mm_85.PRM
  Tot(65)        1       11     2074     20.8    518.6   2967.3   713.00    273.0    293.8      0.0      0.0      0.0    116.7       56    165.4    164.1       62     0.000     0.000     0.000     0.000      131        0        0        0        0       49       34    10.996       53     27.5    3.028   -9.900     1.13    0.000    0.000       27        3     2075  Wheat_Multan_1Nov_7d13mm_85.PRM
  Tot(66)        1       11     2075     21.0    532.7   2972.7   721.00    260.0    281.0      0.0      0.0      0.0    111.2       54    169.7    171.0       59     0.000     0.000     0.000     0.000      123        0        0        0        0       40       32    11.162       56     21.8    2.428   -9.900     0.94    0.000    0.000       25        3     2076  Wheat_Multan_1Nov_7d13mm_85.PRM
  Tot(67)        1       11     2076     40.4    512.8   2962.6   729.00    260.0    300.4      0.0      0.0      0.0    115.4       57    181.1    180.5       67     0.000     0.000     0.000     0.000      129        0        0        0        0       48       29    11.860       58     31.1    3.694   -9.900     1.31    0.000    0.000       25        3     2077  Wheat_Multan_1Nov_7d13mm_85.PRM
  Tot(68)        1       11     2077     29.4    519.0   2953.6   737.50    260.0    289.4      0.0      0.0      0.0    128.2       58    158.2    158.2       61     0.000     0.000     0.000     0.000      121        0        0        0        0       49       33    10.032       51     23.5    2.361   -9.900     0.91    0.000    0.000       24        3     2078  Wheat_Multan_1Nov_7d13mm_85.PRM
  Tot(69)        1       11     2078     29.2    518.4   2951.3   746.00    260.0    289.2      0.0      0.0      0.0    128.6       58    159.5    160.1       61     0.000     0.000     0.000     0.000      122        0        0        0        0       49       33    10.223       52     23.7    2.420   -9.900     0.92    0.000    0.000       25        3     2079  Wheat_Multan_1Nov_7d13mm_85.PRM
  Tot(70)        1       11     2079     68.7    507.6   2970.5   754.00    260.0    328.1      0.6      0.0      0.0    129.5       73    189.3    189.1       70     0.000     0.000     0.000     0.000      134        0        0        0        0       43       28    13.038       63     35.4    4.617   -9.900     1.54    0.000    0.000       24        3     2080  Wheat_Multan_1Nov_7d13mm_85.PRM
  Tot(71)        1       11     2080     46.3    510.2   2965.5   762.50    260.0    306.3      0.0      0.0      0.0    134.6       61    169.4    169.3       66     0.000     0.000     0.000     0.000      120        0        0        0        0       46       29    11.195       57     26.6    2.982   -9.900     1.12    0.000    0.000       23        3     2081  Wheat_Multan_1Nov_7d13mm_85.PRM
  Tot(72)        1       11     2081     59.9    508.1   2953.8   771.00    260.0    319.9      0.0      0.0      0.0    117.2       59    200.2    200.0       73     0.000     0.000     0.000     0.000      123        0        0        0        0       40       23    13.347       66     27.6    3.683   -9.900     1.25    0.000    0.000       26        3     2082  Wheat_Multan_1Nov_7d13mm_85.PRM
  Tot(73)        1       11     2082     28.2    521.1   2966.8   779.50    260.0    288.2      0.0      0.0      0.0    134.4       58    152.8    153.2       61     0.000     0.000     0.000     0.000      122        0        0        0        0       51       34    10.027       50     25.2    2.527   -9.900     1.01    0.000    0.000       25        3     2083  Wheat_Multan_1Nov_7d13mm_85.PRM
  Tot(74)        1       11     2083     25.1    514.7   2954.6   788.00    260.0    285.1      0.0      0.0      0.0    118.2       59    165.4    165.4       62     0.000     0.000     0.000     0.000      121        0        0        0        0       41       31    11.082       56     22.3    2.474   -9.900     0.96    0.000    0.000       23        3     2084  Wheat_Multan_1Nov_7d13mm_85.PRM
  Tot(75)        1       11     2084     13.7    516.5   2965.0   796.50    260.0    273.7      0.0      0.0      0.0    123.9       57    146.6    145.6       57     0.000     0.000     0.000     0.000      119        0        0        0        0       48       36     9.607       49     22.5    2.159   -9.900     0.88    0.000    0.000       22        3     2085  Wheat_Multan_1Nov_7d13mm_85.PRM
  Tot(76)        1       11     2085     42.7    519.7   2961.0   805.50    260.0    301.8      0.9      0.0      0.0    115.9       57    180.8    181.8       66     0.000     0.000     0.000     0.000      123        0        0        0        0       45       29    12.126       61     24.9    3.018   -9.900     1.10    0.000    0.000       26        3     2086  Wheat_Multan_1Nov_7d13mm_85.PRM
  Tot(77)        1       11     2086     47.2    511.1   2963.8   814.00    260.0    307.2      0.0      0.0      0.0    126.1       61    175.7    175.4       69     0.000     0.000     0.000     0.000      129        0        0        0        0       49       28    11.776       57     32.3    3.798   -9.900     1.36    0.000    0.000       25        3     2087  Wheat_Multan_1Nov_7d13mm_85.PRM
  Tot(78)        1       11     2087     58.8    513.2   2963.4   822.50    260.0    318.7      0.1      0.0      0.0    119.1       59    192.6    191.5       72     0.000     0.000     0.000     0.000      126        0        0        0        0       41       24    12.695       63     31.9    4.054   -9.900     1.41    0.000    0.000       21        3     2088  Wheat_Multan_1Nov_7d13mm_85.PRM
  Tot(79)        1       11     2088     67.5    503.4   2952.1   831.50    260.0    327.4      0.1      0.0      0.0    134.5       75    178.8    180.2       70     0.000     0.000     0.000     0.000      135        0        0        0        0       45       27    12.147       60     38.8    4.709   -9.900     1.56    0.000    0.000       21        3     2089  Wheat_Multan_1Nov_7d13mm_85.PRM
  Tot(80)        1       11     2089     18.3    523.3   2954.7   840.50    260.0    278.3      0.0      0.0      0.0    126.4       54    148.0    146.5       60     0.000     0.000     0.000     0.000      119        0        0        0        0       47       33     9.607       50     23.3    2.234   -9.900     0.91    0.000    0.000       22        3     2090  Wheat_Multan_1Nov_7d13mm_85.PRM
  Tot(81)        1       11     2090     26.8    519.7   2961.9   849.50    260.0    286.7      0.1      0.0      0.0    123.9       54    160.0    161.0       65     0.000     0.000     0.000     0.000      120        0        0        0        0       49       31    10.223       53     27.9    2.847   -9.900     1.09    0.000    0.000       23        3     2091  Wheat_Multan_1Nov_7d13mm_85.PRM
  Tot(82)        1       11     2091     34.3    506.2   2952.8   858.50    260.0    294.0      0.3      0.0      0.0    125.0       56    156.7    155.8       65     0.000     0.000     0.000     0.000      125        0        0        0        0       52       32    10.531       53     30.3    3.190   -9.900     1.20    0.000    0.000       19        3     2092  Wheat_Multan_1Nov_7d13mm_85.PRM
  Tot(83)        1       11     2092     33.5    517.2   2960.9   867.50    260.0    293.4      0.1      0.0      0.0    131.4       56    157.1    155.3       64     0.000     0.000     0.000     0.000      111        0        0        0        0       47       29    10.067       55     19.8    1.991   -9.900     0.79    0.000    0.000       21        3     2093  Wheat_Multan_1Nov_7d13mm_85.PRM
  Tot(84)        1       11     2093      8.2    518.2   2969.4   876.50    260.0    268.2      0.0      0.0      0.0    117.0       53    146.9    148.6       60     0.000     0.000     0.000     0.000      119        0        0        0        0       48       34     9.633       50     23.6    2.271   -9.900     0.94    0.000    0.000       22        3     2094  Wheat_Multan_1Nov_7d13mm_85.PRM
  Tot(85)        1       11     2094     10.9    510.4   2966.8   885.50    260.0    270.9      0.0      0.0      0.0    106.1       55    160.4    161.3       62     0.000     0.000     0.000     0.000      128        0        0        0        0       48       33    10.899       54     29.5    3.214   -9.900     1.26    0.000    0.000       24        3     2095  Wheat_Multan_1Nov_7d13mm_85.PRM
  Tot(86)        1       11     2095     55.1    506.2   2964.5   894.50    260.0    315.1      0.0      0.0      0.0    126.8       67    178.3    178.8       72     0.000     0.000     0.000     0.000      134        0        0        0        0       46       25    12.469       62     37.5    4.675   -9.900     1.59    0.000    0.000       21        3     2096  Wheat_Multan_1Nov_7d13mm_85.PRM
  Tot(87)        1       11     2096     22.5    523.2   2952.4   903.50    260.0    282.5      0.0      0.0      0.0    125.6       56    147.3    144.6       57     0.000     0.000     0.000     0.000      117        0        0        0        0       44       36     9.589       51     19.5    1.873   -9.900     0.76    0.000    0.000       20        3     2097  Wheat_Multan_1Nov_7d13mm_85.PRM
  Tot(88)        1       11     2097     56.6    507.4   2969.1   912.50    260.0    316.6      0.0      0.0      0.0    121.5       63    186.6    187.1       70     0.000     0.000     0.000     0.000      118        0        0        0        0       41       26    12.364       65     27.1    3.348   -9.900     1.21    0.000    0.000       21        3     2098  Wheat_Multan_1Nov_7d13mm_85.PRM
  Tot(89)        1       11     2098     17.6    509.6   2958.7   922.00    260.0    277.6      0.0      0.0      0.0    111.2       51    158.9    158.6       66     0.000     0.000     0.000     0.000      118        0        0        0        0       47       30    10.695       56     26.7    2.858   -9.900     1.16    0.000    0.000       21        3     2099  Wheat_Multan_1Nov_7d13mm_85.PRM
