AquaCrop 7.1 (August 2023) - Output created on (date) : 01-12-2023   at (time) : 18:05:05

    RunNr     Day1   Month1    Year1     Rain      ETo       GD     CO2      Irri   Infilt   Runoff    Drain   Upflow        E     E/Ex       Tr      TrW   Tr/Trx    SaltIn   SaltOut    SaltUp  SaltProf     Cycle   SaltStr  FertStr  WeedStr  TempStr   ExpStr   StoStr  BioMass  Brelative   HI    Y(dry)  Y(fresh)    WPet      Bin     Bout     DayN   MonthN    YearN
                                           mm       mm  degC.day    ppm        mm       mm       mm       mm       mm       mm        %       mm       mm        %    ton/ha    ton/ha    ton/ha    ton/ha      days       %        %        %        %        %        %    ton/ha        %       %    ton/ha   ton/ha    kg/m3   ton/ha   ton/ha
   Tot(1)        1       11     2010      6.3    556.2   2969.3   390.74    220.0    226.3      0.0      0.0      0.0    131.7       48    161.1    161.1       71     0.000     0.000     0.000     0.000      137        0        0        0        0       65       25     7.272       45     39.5    2.869   -9.900     1.00    0.000    0.000       25        3     2011  Wheat_Badin_1Nov_7d11mm_45.PRM
   Tot(2)        1       11     2011      3.6    561.1   2957.8   392.73    231.0    234.6      0.0      0.0      0.0    132.6       51    166.3    166.3       69     0.000     0.000     0.000     0.000      139        0        0        0        0       65       25     7.642       46     39.2    2.999   -9.900     1.03    0.000    0.000       26        3     2012  Wheat_Badin_1Nov_7d11mm_45.PRM
   Tot(3)        1       11     2012      2.1    560.7   2965.6   395.15    220.0    222.1      0.0      0.0      0.0    128.3       46    160.6    160.6       72     0.000     0.000     0.000     0.000      138        0        0        0        0       66       24     7.243       44     39.7    2.874   -9.900     1.01    0.000    0.000       26        3     2013  Wheat_Badin_1Nov_7d11mm_45.PRM
   Tot(4)        1       11     2013      3.3    559.5   2953.3   397.51    220.0    223.3      0.0      0.0      0.0    128.5       47    161.4    161.4       71     0.000     0.000     0.000     0.000      138        0        0        0        0       65       24     7.412       44     40.4    2.996   -9.900     1.05    0.000    0.000       26        3     2014  Wheat_Badin_1Nov_7d11mm_45.PRM
   Tot(5)        1       11     2014      1.3    568.0   2961.5   399.27    220.0    221.3      0.0      0.0      0.0    131.6       43    152.0    152.0       75     0.000     0.000     0.000     0.000      137        0        0        0        0       67       22     6.806       41     40.0    2.722   -9.900     0.98    0.000    0.000       25        3     2015  Wheat_Badin_1Nov_7d11mm_45.PRM
   Tot(6)        1       11     2015      7.8    558.4   2957.8   401.00    220.0    227.8      0.0      0.0      0.0    127.9       46    163.6    163.6       73     0.000     0.000     0.000     0.000      137        0        0        0        0       66       24     7.385       44     39.8    2.936   -9.900     1.03    0.000    0.000       24        3     2016  Wheat_Badin_1Nov_7d11mm_45.PRM
   Tot(7)        1       11     2016      6.7    553.3   2954.8   403.00    220.0    226.7      0.0      0.0      0.0    133.6       46    155.1    155.1       75     0.000     0.000     0.000     0.000      137        0        0        0        0       66       22     7.153       43     40.0    2.861   -9.900     1.01    0.000    0.000       25        3     2017  Wheat_Badin_1Nov_7d11mm_45.PRM
   Tot(8)        1       11     2017      0.0    572.8   2966.5   405.50    220.0    220.0      0.0      0.0      0.0    135.9       45    149.2    149.2       72     0.000     0.000     0.000     0.000      137        0        0        0        0       67       24     6.695       40     39.7    2.658   -9.900     0.95    0.000    0.000       25        3     2018  Wheat_Badin_1Nov_7d11mm_45.PRM
   Tot(9)        1       11     2018      0.3    561.1   2961.4   408.00    220.0    220.3      0.0      0.0      0.0    131.1       47    155.6    155.6       70     0.000     0.000     0.000     0.000      136        0        0        0        0       66       26     7.029       42     39.4    2.768   -9.900     1.00    0.000    0.000       24        3     2019  Wheat_Badin_1Nov_7d11mm_45.PRM
  Tot(10)        1       11     2019      1.6    565.5   2970.5   410.00    220.0    221.6      0.0      0.0      0.0    135.7       46    150.9    150.9       72     0.000     0.000     0.000     0.000      137        0        0        0        0       67       25     6.869       41     39.6    2.720   -9.900     0.97    0.000    0.000       24        3     2020  Wheat_Badin_1Nov_7d11mm_45.PRM
  Tot(11)        1       11     2020      5.6    552.2   2958.4   412.00    220.0    225.6      0.0      0.0      0.0    131.3       49    159.4    159.4       71     0.000     0.000     0.000     0.000      135        0        0        0        0       66       25     7.385       44     39.5    2.915   -9.900     1.03    0.000    0.000       23        3     2021  Wheat_Badin_1Nov_7d11mm_45.PRM
  Tot(12)        1       11     2021      1.5    566.3   2959.7   414.50    220.0    221.5      0.0      0.0      0.0    135.9       46    151.0    151.0       71     0.000     0.000     0.000     0.000      136        0        0        0        0       65       24     6.910       41     39.6    2.735   -9.900     0.98    0.000    0.000       23        3     2022  Wheat_Badin_1Nov_7d11mm_45.PRM
  Tot(13)        1       11     2022      3.1    561.9   2973.9   417.00    220.0    223.1      0.0      0.0      0.0    132.5       47    156.5    156.5       72     0.000     0.000     0.000     0.000      137        0        0        0        0       66       24     7.304       43     40.6    2.968   -9.900     1.05    0.000    0.000       25        3     2023  Wheat_Badin_1Nov_7d11mm_45.PRM
  Tot(14)        1       11     2023      3.1    559.2   2951.7   419.00    220.0    223.1      0.0      0.0      0.0    130.6       47    159.4    159.4       71     0.000     0.000     0.000     0.000      138        0        0        0        0       66       24     7.590       44     39.6    3.002   -9.900     1.05    0.000    0.000       25        3     2024  Wheat_Badin_1Nov_7d11mm_45.PRM
  Tot(15)        1       11     2024     21.9    569.8   2968.1   421.50    220.0    241.8      0.1      0.0      0.0    138.8       53    169.4    169.4       70     0.000     0.000     0.000     0.000      135        0        0        0        0       64       27     7.780       46     39.9    3.108   -9.900     1.04    0.000    0.000       23        3     2025  Wheat_Badin_1Nov_7d11mm_45.PRM
  Tot(16)        1       11     2025      3.0    568.6   2960.4   424.00    220.0    223.0      0.0      0.0      0.0    135.2       44    149.2    149.2       74     0.000     0.000     0.000     0.000      136        0        0        0        0       67       22     6.955       40     39.9    2.776   -9.900     1.01    0.000    0.000       24        3     2026  Wheat_Badin_1Nov_7d11mm_45.PRM
  Tot(17)        1       11     2026      2.9    558.4   2954.1   426.50    220.0    222.9      0.0      0.0      0.0    132.0       47    155.5    155.5       73     0.000     0.000     0.000     0.000      137        0        0        0        0       65       23     7.559       43     39.6    2.997   -9.900     1.08    0.000    0.000       24        3     2027  Wheat_Badin_1Nov_7d11mm_45.PRM
  Tot(18)        1       11     2027      3.8    562.1   2966.7   429.00    220.0    223.8      0.0      0.0      0.0    137.5       46    147.8    147.8       72     0.000     0.000     0.000     0.000      133        0        0        0        0       68       23     6.879       40     39.7    2.733   -9.900     0.99    0.000    0.000       20        3     2028  Wheat_Badin_1Nov_7d11mm_45.PRM
  Tot(19)        1       11     2028      1.3    557.0   2966.2   431.50    220.0    221.3      0.0      0.0      0.0    124.6       48    164.2    164.2       70     0.000     0.000     0.000     0.000      136        0        0        0        0       64       26     7.876       45     40.1    3.159   -9.900     1.13    0.000    0.000       24        3     2029  Wheat_Badin_1Nov_7d11mm_45.PRM
  Tot(20)        1       11     2029      0.6    565.9   2956.4   434.00    220.0    220.6      0.0      0.0      0.0    134.3       45    148.7    148.7       74     0.000     0.000     0.000     0.000      136        0        0        0        0       67       22     7.173       41     40.7    2.921   -9.900     1.07    0.000    0.000       24        3     2030  Wheat_Badin_1Nov_7d11mm_45.PRM
  Tot(21)        1       11     2030      6.0    556.7   2970.0   436.50    220.0    226.0      0.0      0.0      0.0    133.2       49    158.2    158.2       71     0.000     0.000     0.000     0.000      136        0        0        0        0       65       25     7.744       44     40.2    3.116   -9.900     1.10    0.000    0.000       24        3     2031  Wheat_Badin_1Nov_7d11mm_45.PRM
  Tot(22)        1       11     2031      2.5    564.5   2968.8   439.00    220.0    222.5      0.0      0.0      0.0    131.0       46    155.2    155.2       71     0.000     0.000     0.000     0.000      135        0        0        0        0       66       25     7.426       43     40.5    3.008   -9.900     1.08    0.000    0.000       22        3     2032  Wheat_Badin_1Nov_7d11mm_45.PRM
  Tot(23)        1       11     2032      0.3    562.2   2971.2   441.50    220.0    220.3      0.0      0.0      0.0    135.3       46    147.3    147.3       73     0.000     0.000     0.000     0.000      136        0        0        0        0       66       23     7.149       41     39.8    2.843   -9.900     1.04    0.000    0.000       23        3     2033  Wheat_Badin_1Nov_7d11mm_45.PRM
  Tot(24)        1       11     2033      7.1    564.2   2966.3   444.00    220.0    227.1      0.0      0.0      0.0    145.4       48    144.5    144.5       72     0.000     0.000     0.000     0.000      135        0        0        0        0       67       24     7.073       40     40.5    2.866   -9.900     1.02    0.000    0.000       23        3     2034  Wheat_Badin_1Nov_7d11mm_45.PRM
  Tot(25)        1       11     2034      4.8    554.2   2954.4   446.50    220.0    224.8      0.0      0.0      0.0    131.2       47    156.5    156.5       72     0.000     0.000     0.000     0.000      135        0        0        0        0       65       23     7.690       44     40.5    3.111   -9.900     1.11    0.000    0.000       22        3     2035  Wheat_Badin_1Nov_7d11mm_45.PRM
  Tot(26)        1       11     2035      5.6    562.4   2957.5   449.00    220.0    225.6      0.0      0.0      0.0    140.6       46    144.9    144.9       73     0.000     0.000     0.000     0.000      134        0        0        0        0       69       23     6.907       39     40.7    2.808   -9.900     1.01    0.000    0.000       21        3     2036  Wheat_Badin_1Nov_7d11mm_45.PRM
  Tot(27)        1       11     2036      3.1    558.2   2973.9   451.50    220.0    223.1      0.0      0.0      0.0    134.2       48    154.8    154.8       71     0.000     0.000     0.000     0.000      137        0        0        0        0       65       25     7.660       43     40.5    3.104   -9.900     1.11    0.000    0.000       24        3     2037  Wheat_Badin_1Nov_7d11mm_45.PRM
  Tot(28)        1       11     2037      3.0    571.9   2973.5   454.50    220.0    223.0      0.0      0.0      0.0    140.9       44    141.0    141.0       74     0.000     0.000     0.000     0.000      135        0        0        0        0       69       23     6.808       38     40.0    2.726   -9.900     1.00    0.000    0.000       22        3     2038  Wheat_Badin_1Nov_7d11mm_45.PRM
  Tot(29)        1       11     2038      1.8    547.1   2957.3   457.00    220.0    221.8      0.0      0.0      0.0    128.2       48    157.6    157.6       71     0.000     0.000     0.000     0.000      135        0        0        0        0       66       25     7.951       44     40.4    3.213   -9.900     1.16    0.000    0.000       23        3     2039  Wheat_Badin_1Nov_7d11mm_45.PRM
  Tot(30)        1       11     2039      1.8    563.8   2972.1   459.50    220.0    221.8      0.0      0.0      0.0    130.6       46    154.9    154.9       72     0.000     0.000     0.000     0.000      135        0        0        0        0       66       24     7.675       43     39.6    3.041   -9.900     1.10    0.000    0.000       21        3     2040  Wheat_Badin_1Nov_7d11mm_45.PRM
  Tot(31)        1       11     2040      3.3    567.3   2955.7   462.00    220.0    223.3      0.0      0.0      0.0    139.6       45    142.7    142.7       74     0.000     0.000     0.000     0.000      134        0        0        0        0       69       22     6.910       39     40.7    2.809   -9.900     1.03    0.000    0.000       21        3     2041  Wheat_Badin_1Nov_7d11mm_45.PRM
  Tot(32)        1       11     2041      4.0    568.2   2974.2   464.50    220.0    224.0      0.0      0.0      0.0    136.3       46    150.1    150.1       71     0.000     0.000     0.000     0.000      134        0        0        0        0       66       24     7.488       42     40.2    3.012   -9.900     1.08    0.000    0.000       21        3     2042  Wheat_Badin_1Nov_7d11mm_45.PRM
  Tot(33)        1       11     2042      6.7    554.1   2971.6   467.50    220.0    226.7      0.0      0.0      0.0    139.8       48    149.2    149.2       72     0.000     0.000     0.000     0.000      136        0        0        0        0       66       22     7.640       42     39.9    3.045   -9.900     1.09    0.000    0.000       23        3     2043  Wheat_Badin_1Nov_7d11mm_45.PRM
  Tot(34)        1       11     2043      2.3    557.2   2952.9   470.00    220.0    222.3      0.0      0.0      0.0    134.8       46    148.8    148.8       74     0.000     0.000     0.000     0.000      135        0        0        0        0       68       21     7.474       41     40.1    2.997   -9.900     1.09    0.000    0.000       22        3     2044  Wheat_Badin_1Nov_7d11mm_45.PRM
  Tot(35)        1       11     2044      1.3    564.9   2969.9   472.50    220.0    221.3      0.0      0.0      0.0    137.8       46    144.2    144.2       73     0.000     0.000     0.000     0.000      134        0        0        0        0       67       23     7.159       40     39.8    2.849   -9.900     1.04    0.000    0.000       21        3     2045  Wheat_Badin_1Nov_7d11mm_45.PRM
  Tot(36)        1       11     2045      2.2    551.0   2974.4   475.00    220.0    222.2      0.0      0.0      0.0    130.1       48    153.0    153.0       72     0.000     0.000     0.000     0.000      134        0        0        0        0       66       24     7.781       43     39.6    3.085   -9.900     1.12    0.000    0.000       21        3     2046  Wheat_Badin_1Nov_7d11mm_45.PRM
  Tot(37)        1       11     2046      1.0    569.3   2962.7   477.50    220.0    221.0      0.0      0.0      0.0    139.1       43    139.2    139.2       76     0.000     0.000     0.000     0.000      133        0        0        0        0       70       21     6.903       38     40.9    2.822   -9.900     1.05    0.000    0.000       21        3     2047  Wheat_Badin_1Nov_7d11mm_45.PRM
  Tot(38)        1       11     2047      0.0    569.4   2970.9   480.00    220.0    220.0      0.0      0.0      0.0    136.8       45    144.6    144.6       72     0.000     0.000     0.000     0.000      134        0        0        0        0       68       24     7.158       40     39.7    2.843   -9.900     1.04    0.000    0.000       20        3     2048  Wheat_Badin_1Nov_7d11mm_45.PRM
  Tot(39)        1       11     2048      3.0    566.1   2966.0   482.50    220.0    223.0      0.0      0.0      0.0    133.9       45    150.9    150.9       73     0.000     0.000     0.000     0.000      134        0        0        0        0       67       23     7.620       42     39.9    3.037   -9.900     1.10    0.000    0.000       22        3     2049  Wheat_Badin_1Nov_7d11mm_45.PRM
  Tot(40)        1       11     2049      0.0    560.0   2968.1   485.50    220.0    220.0      0.0      0.0      0.0    136.4       44    137.9    137.9       75     0.000     0.000     0.000     0.000      133        0        0        0        0       69       21     6.942       38     40.1    2.786   -9.900     1.04    0.000    0.000       20        3     2050  Wheat_Badin_1Nov_7d11mm_45.PRM
  Tot(41)        1       11     2050      1.3    553.7   2965.4   488.00    220.0    221.3      0.0      0.0      0.0    130.1       48    153.5    153.5       71     0.000     0.000     0.000     0.000      133        0        0        0        0       66       24     7.903       43     39.6    3.127   -9.900     1.14    0.000    0.000       21        3     2051  Wheat_Badin_1Nov_7d11mm_45.PRM
  Tot(42)        1       11     2051      2.5    555.0   2963.1   490.50    209.0    211.5      0.0      0.0      0.0    128.8       44    146.2    146.2       74     0.000     0.000     0.000     0.000      132        0        0        0        0       67       22     7.440       41     39.8    2.964   -9.900     1.09    0.000    0.000       18        3     2052  Wheat_Badin_1Nov_7d11mm_45.PRM
  Tot(43)        1       11     2052      2.1    552.6   2953.2   493.00    220.0    222.1      0.0      0.0      0.0    132.6       45    145.8    145.8       74     0.000     0.000     0.000     0.000      133        0        0        0        0       68       22     7.479       41     40.0    2.989   -9.900     1.10    0.000    0.000       20        3     2053  Wheat_Badin_1Nov_7d11mm_45.PRM
  Tot(44)        1       11     2053      2.8    568.0   2969.5   495.00    220.0    222.8      0.0      0.0      0.0    137.2       43    138.6    138.6       76     0.000     0.000     0.000     0.000      133        0        0        0        0       69       21     7.058       39     40.2    2.839   -9.900     1.05    0.000    0.000       20        3     2054  Wheat_Badin_1Nov_7d11mm_45.PRM
  Tot(45)        1       11     2054      5.1    560.6   2959.1   497.00    220.0    225.1      0.0      0.0      0.0    140.7       47    144.7    144.7       73     0.000     0.000     0.000     0.000      133        0        0        0        0       69       23     7.429       40     40.6    3.016   -9.900     1.09    0.000    0.000       21        3     2055  Wheat_Badin_1Nov_7d11mm_45.PRM
  Tot(46)        1       11     2055      3.3    561.8   2959.6   499.50    220.0    223.3      0.0      0.0      0.0    141.6       44    135.3    135.3       76     0.000     0.000     0.000     0.000      132        0        0        0        0       71       21     6.884       38     39.3    2.705   -9.900     1.00    0.000    0.000       19        3     2056  Wheat_Badin_1Nov_7d11mm_45.PRM
  Tot(47)        1       11     2056      4.0    552.3   2964.9   502.00    220.0    224.0      0.0      0.0      0.0    133.7       46    148.8    148.8       74     0.000     0.000     0.000     0.000      134        0        0        0        0       67       22     7.739       42     40.0    3.099   -9.900     1.13    0.000    0.000       21        3     2057  Wheat_Badin_1Nov_7d11mm_45.PRM
  Tot(48)        1       11     2057      5.7    550.0   2966.0   504.00    220.0    225.7      0.0      0.0      0.0    129.6       46    154.7    154.7       74     0.000     0.000     0.000     0.000      134        0        0        0        0       66       22     8.131       44     40.7    3.311   -9.900     1.20    0.000    0.000       21        3     2058  Wheat_Badin_1Nov_7d11mm_45.PRM
  Tot(49)        1       11     2058      4.8    551.9   2953.5   506.00    209.0    213.8      0.0      0.0      0.0    132.4       45    143.4    143.4       74     0.000     0.000     0.000     0.000      133        0        0        0        0       68       22     7.472       41     40.0    2.991   -9.900     1.09    0.000    0.000       19        3     2059  Wheat_Badin_1Nov_7d11mm_45.PRM
  Tot(50)        1       11     2059      5.1    556.0   2966.4   508.00    220.0    225.1      0.0      0.0      0.0    136.1       47    148.2    148.2       74     0.000     0.000     0.000     0.000      134        0        0        0        0       67       21     7.797       42     40.1    3.127   -9.900     1.13    0.000    0.000       20        3     2060  Wheat_Badin_1Nov_7d11mm_45.PRM
  Tot(51)        1       11     2060      7.5    559.8   2969.3   510.00    209.0    216.5      0.0      0.0      0.0    135.0       44    144.9    144.9       74     0.000     0.000     0.000     0.000      132        0        0        0        0       67       22     7.511       41     39.9    2.996   -9.900     1.08    0.000    0.000       19        3     2061  Wheat_Badin_1Nov_7d11mm_45.PRM
  Tot(52)        1       11     2061      2.1    563.8   2967.9   512.00    209.0    211.1      0.0      0.0      0.0    135.3       43    136.7    136.7       75     0.000     0.000     0.000     0.000      132        0        0        0        0       69       21     6.979       38     40.1    2.801   -9.900     1.04    0.000    0.000       19        3     2062  Wheat_Badin_1Nov_7d11mm_45.PRM
  Tot(53)        1       11     2062      2.8    556.5   2960.8   513.50    220.0    222.8      0.0      0.0      0.0    132.9       46    147.7    147.7       73     0.000     0.000     0.000     0.000      132        0        0        0        0       67       22     7.736       42     40.5    3.134   -9.900     1.15    0.000    0.000       20        3     2063  Wheat_Badin_1Nov_7d11mm_45.PRM
  Tot(54)        1       11     2063      6.3    549.9   2960.7   515.00    209.0    215.3      0.0      0.0      0.0    136.4       44    140.8    140.8       75     0.000     0.000     0.000     0.000      132        0        0        0        0       68       21     7.366       40     40.1    2.951   -9.900     1.08    0.000    0.000       18        3     2064  Wheat_Badin_1Nov_7d11mm_45.PRM
  Tot(55)        1       11     2064      0.8    550.3   2958.0   517.00    220.0    220.8      0.0      0.0      0.0    127.9       46    149.8    149.8       74     0.000     0.000     0.000     0.000      133        0        0        0        0       67       22     7.942       43     40.5    3.219   -9.900     1.19    0.000    0.000       20        3     2065  Wheat_Badin_1Nov_7d11mm_45.PRM
  Tot(56)        1       11     2065      3.3    562.2   2971.4   518.50    220.0    223.3      0.0      0.0      0.0    131.8       46    150.7    150.7       72     0.000     0.000     0.000     0.000      133        0        0        0        0       67       25     7.912       42     39.6    3.131   -9.900     1.13    0.000    0.000       20        3     2066  Wheat_Badin_1Nov_7d11mm_45.PRM
  Tot(57)        1       11     2066     22.4    551.8   2953.5   519.50    209.0    231.4      0.0      0.0      0.0    124.0       56    179.0    179.0       67     0.000     0.000     0.000     0.000      132        0        0        0        0       64       29     9.464       51     38.8    3.675   -9.900     1.22    0.000    0.000       19        3     2067  Wheat_Badin_1Nov_7d11mm_45.PRM
  Tot(58)        1       11     2067      3.5    559.7   2965.1   521.00    220.0    223.5      0.0      0.0      0.0    132.4       45    147.5    147.5       74     0.000     0.000     0.000     0.000      133        0        0        0        0       68       22     7.754       42     39.9    3.095   -9.900     1.13    0.000    0.000       19        3     2068  Wheat_Badin_1Nov_7d11mm_45.PRM
  Tot(59)        1       11     2068      1.3    564.8   2973.0   522.50    220.0    221.3      0.0      0.0      0.0    136.6       43    137.3    137.3       75     0.000     0.000     0.000     0.000      133        0        0        0        0       69       21     7.073       38     40.2    2.846   -9.900     1.06    0.000    0.000       20        3     2069  Wheat_Badin_1Nov_7d11mm_45.PRM
  Tot(60)        1       11     2069     11.9    547.0   2955.9   523.50    209.0    220.9      0.0      0.0      0.0    136.5       45    141.9    141.9       77     0.000     0.000     0.000     0.000      131        0        0        0        0       68       20     7.532       41     40.3    3.034   -9.900     1.11    0.000    0.000       18        3     2070  Wheat_Badin_1Nov_7d11mm_45.PRM
  Tot(61)        1       11     2070      1.8    553.6   2958.6   524.50    220.0    221.8      0.0      0.0      0.0    134.6       46    143.6    143.6       73     0.000     0.000     0.000     0.000      132        0        0        0        0       69       23     7.592       41     39.9    3.031   -9.900     1.12    0.000    0.000       20        3     2071  Wheat_Badin_1Nov_7d11mm_45.PRM
  Tot(62)        1       11     2071     20.1    557.4   2963.5   526.00    209.0    229.0      0.1      0.0      0.0    131.9       53    164.8    164.8       68     0.000     0.000     0.000     0.000      129        0        0        0        0       66       29     8.449       47     39.6    3.345   -9.900     1.16    0.000    0.000       15        3     2072  Wheat_Badin_1Nov_7d11mm_45.PRM
  Tot(63)        1       11     2072      2.4    543.9   2957.6   527.00    220.0    222.4      0.0      0.0      0.0    134.0       47    146.9    146.9       74     0.000     0.000     0.000     0.000      134        0        0        0        0       67       22     8.009       42     40.1    3.209   -9.900     1.18    0.000    0.000       21        3     2073  Wheat_Badin_1Nov_7d11mm_45.PRM
  Tot(64)        1       11     2073      7.0    544.7   2956.0   527.50    209.0    216.0      0.0      0.0      0.0    133.8       45    142.3    142.3       76     0.000     0.000     0.000     0.000      131        0        0        0        0       68       21     7.554       41     40.1    3.029   -9.900     1.12    0.000    0.000       18        3     2074  Wheat_Badin_1Nov_7d11mm_45.PRM
  Tot(65)        1       11     2074     19.6    549.5   2964.4   528.50    209.0    228.5      0.1      0.0      0.0    132.2       51    161.5    161.5       73     0.000     0.000     0.000     0.000      132        0        0        0        0       65       24     8.650       46     39.7    3.435   -9.900     1.18    0.000    0.000       19        3     2075  Wheat_Badin_1Nov_7d11mm_45.PRM
  Tot(66)        1       11     2075      8.6    551.0   2963.4   529.50    209.0    217.6      0.0      0.0      0.0    129.8       44    147.0    147.0       76     0.000     0.000     0.000     0.000      131        0        0        0        0       67       21     7.715       42     40.9    3.152   -9.900     1.16    0.000    0.000       17        3     2076  Wheat_Badin_1Nov_7d11mm_45.PRM
  Tot(67)        1       11     2076      4.1    544.1   2952.7   530.00    209.0    213.1      0.0      0.0      0.0    126.4       45    148.4    148.4       73     0.000     0.000     0.000     0.000      132        0        0        0        0       67       22     7.893       42     40.6    3.205   -9.900     1.18    0.000    0.000       19        3     2077  Wheat_Badin_1Nov_7d11mm_45.PRM
  Tot(68)        1       11     2077      2.5    547.2   2957.7   530.50    209.0    211.5      0.0      0.0      0.0    131.3       46    143.1    143.1       73     0.000     0.000     0.000     0.000      131        0        0        0        0       67       23     7.588       41     39.8    3.022   -9.900     1.13    0.000    0.000       18        3     2078  Wheat_Badin_1Nov_7d11mm_45.PRM
  Tot(69)        1       11     2078      1.3    554.8   2962.9   531.00    209.0    210.3      0.0      0.0      0.0    134.2       43    136.0    136.0       76     0.000     0.000     0.000     0.000      132        0        0        0        0       69       20     7.277       39     40.3    2.933   -9.900     1.10    0.000    0.000       19        3     2079  Wheat_Badin_1Nov_7d11mm_45.PRM
  Tot(70)        1       11     2079     19.5    551.6   2951.8   531.00    209.0    228.4      0.1      0.0      0.0    129.1       51    163.9    163.9       70     0.000     0.000     0.000     0.000      131        0        0        0        0       66       26     8.500       46     39.4    3.351   -9.900     1.17    0.000    0.000       17        3     2080  Wheat_Badin_1Nov_7d11mm_45.PRM
  Tot(71)        1       11     2080      3.5    546.8   2970.6   531.00    209.0    212.5      0.0      0.0      0.0    131.8       44    141.0    141.0       76     0.000     0.000     0.000     0.000      132        0        0        0        0       68       21     7.642       41     40.2    3.075   -9.900     1.14    0.000    0.000       19        3     2081  Wheat_Badin_1Nov_7d11mm_45.PRM
  Tot(72)        1       11     2081      0.3    569.4   2957.5   531.00    209.0    209.3      0.0      0.0      0.0    135.2       42    135.3    135.3       74     0.000     0.000     0.000     0.000      131        0        0        0        0       69       22     6.900       37     39.9    2.756   -9.900     1.04    0.000    0.000       18        3     2082  Wheat_Badin_1Nov_7d11mm_45.PRM
  Tot(73)        1       11     2082      5.8    554.5   2969.5   531.50    209.0    214.8      0.0      0.0      0.0    139.2       42    132.4    132.4       77     0.000     0.000     0.000     0.000      130        0        0        0        0       69       20     6.965       38     40.4    2.815   -9.900     1.07    0.000    0.000       17        3     2083  Wheat_Badin_1Nov_7d11mm_45.PRM
  Tot(74)        1       11     2083     22.2    556.7   2956.1   532.00    209.0    231.2      0.0      0.0      0.0    135.4       53    164.8    164.8       69     0.000     0.000     0.000     0.000      132        0        0        0        0       65       28     8.716       46     39.1    3.407   -9.900     1.15    0.000    0.000       18        3     2084  Wheat_Badin_1Nov_7d11mm_45.PRM
  Tot(75)        1       11     2084      0.9    552.6   2955.2   532.00    209.0    209.9      0.0      0.0      0.0    130.0       45    142.7    142.7       73     0.000     0.000     0.000     0.000      131        0        0        0        0       67       23     7.446       41     40.8    3.039   -9.900     1.14    0.000    0.000       17        3     2085  Wheat_Badin_1Nov_7d11mm_45.PRM
  Tot(76)        1       11     2085      7.1    558.0   2973.5   532.00    220.0    227.1      0.0      0.0      0.0    134.3       48    152.4    152.4       73     0.000     0.000     0.000     0.000      132        0        0        0        0       67       23     8.168       44     39.8    3.249   -9.900     1.16    0.000    0.000       20        3     2086  Wheat_Badin_1Nov_7d11mm_45.PRM
  Tot(77)        1       11     2086      1.4    556.3   2975.0   532.50    209.0    210.4      0.0      0.0      0.0    132.0       45    140.5    140.5       73     0.000     0.000     0.000     0.000      130        0        0        0        0       67       23     7.392       40     39.8    2.945   -9.900     1.12    0.000    0.000       17        3     2087  Wheat_Badin_1Nov_7d11mm_45.PRM
  Tot(78)        1       11     2087      0.0    558.5   2954.8   533.00    209.0    209.0      0.0      0.0      0.0    137.7       42    127.9    127.9       77     0.000     0.000     0.000     0.000      130        0        0        0        0       70       20     6.637       36     41.0    2.720   -9.900     1.06    0.000    0.000       16        3     2088  Wheat_Badin_1Nov_7d11mm_45.PRM
  Tot(79)        1       11     2088      3.3    552.1   2961.9   533.00    209.0    212.3      0.0      0.0      0.0    131.0       44    143.2    143.2       74     0.000     0.000     0.000     0.000      132        0        0        0        0       68       23     7.609       41     40.0    3.043   -9.900     1.12    0.000    0.000       19        3     2089  Wheat_Badin_1Nov_7d11mm_45.PRM
  Tot(80)        1       11     2089      1.3    557.6   2961.1   533.50    209.0    210.3      0.0      0.0      0.0    130.5       45    144.3    144.3       73     0.000     0.000     0.000     0.000      132        0        0        0        0       67       23     7.589       41     39.7    3.012   -9.900     1.11    0.000    0.000       19        3     2090  Wheat_Badin_1Nov_7d11mm_45.PRM
  Tot(81)        1       11     2090      7.0    553.3   2951.2   534.00    209.0    216.0      0.0      0.0      0.0    135.1       43    140.5    140.5       76     0.000     0.000     0.000     0.000      131        0        0        0        0       68       21     7.273       39     40.2    2.927   -9.900     1.09    0.000    0.000       18        3     2091  Wheat_Badin_1Nov_7d11mm_45.PRM
  Tot(82)        1       11     2091      3.0    562.8   2961.0   534.50    209.0    212.0      0.0      0.0      0.0    135.9       44    138.4    138.4       73     0.000     0.000     0.000     0.000      130        0        0        0        0       69       23     7.194       39     40.5    2.911   -9.900     1.08    0.000    0.000       17        3     2092  Wheat_Badin_1Nov_7d11mm_45.PRM
  Tot(83)        1       11     2092      1.8    552.2   2969.5   535.00    209.0    210.8      0.0      0.0      0.0    121.9       47    155.7    155.7       71     0.000     0.000     0.000     0.000      132        0        0        0        0       65       25     8.319       45     40.0    3.327   -9.900     1.21    0.000    0.000       19        3     2093  Wheat_Badin_1Nov_7d11mm_45.PRM
  Tot(84)        1       11     2093      0.3    564.2   2960.4   535.00    209.0    209.3      0.0      0.0      0.0    138.8       42    125.9    125.9       76     0.000     0.000     0.000     0.000      129        0        0        0        0       70       21     6.355       35     39.4    2.505   -9.900     0.98    0.000    0.000       16        3     2094  Wheat_Badin_1Nov_7d11mm_45.PRM
  Tot(85)        1       11     2094      5.2    549.6   2954.7   535.50    209.0    214.2      0.0      0.0      0.0    128.9       43    143.9    143.9       78     0.000     0.000     0.000     0.000      132        0        0        0        0       68       19     7.857       42     40.4    3.174   -9.900     1.18    0.000    0.000       19        3     2095  Wheat_Badin_1Nov_7d11mm_45.PRM
  Tot(86)        1       11     2095      0.0    543.8   2966.6   536.00    220.0    220.0      0.0      0.0      0.0    124.8       50    156.8    156.8       70     0.000     0.000     0.000     0.000      133        0        0        0        0       65       25     8.500       45     40.0    3.401   -9.900     1.24    0.000    0.000       19        3     2096  Wheat_Badin_1Nov_7d11mm_45.PRM
  Tot(87)        1       11     2096      0.8    553.9   2966.0   536.50    209.0    209.8      0.0      0.0      0.0    125.7       44    147.5    147.5       73     0.000     0.000     0.000     0.000      132        0        0        0        0       67       23     7.858       42     40.6    3.188   -9.900     1.18    0.000    0.000       19        3     2097  Wheat_Badin_1Nov_7d11mm_45.PRM
  Tot(88)        1       11     2097      4.8    553.3   2965.2   537.00    209.0    213.8      0.0      0.0      0.0    138.6       45    136.0    136.0       73     0.000     0.000     0.000     0.000      130        0        0        0        0       68       24     7.159       39     39.9    2.856   -9.900     1.08    0.000    0.000       17        3     2098  Wheat_Badin_1Nov_7d11mm_45.PRM
  Tot(89)        1       11     2098      6.1    562.2   2966.8   537.50    209.0    215.1      0.0      0.0      0.0    138.2       42    132.8    132.8       77     0.000     0.000     0.000     0.000      130        0        0        0        0       70       20     6.909       37     40.4    2.793   -9.900     1.07    0.000    0.000       17        3     2099  Wheat_Badin_1Nov_7d11mm_45.PRM
