AquaCrop 7.1 (August 2023) - Output created on (date) : 01-12-2023   at (time) : 18:05:43

    RunNr     Day1   Month1    Year1     Rain      ETo       GD     CO2      Irri   Infilt   Runoff    Drain   Upflow        E     E/Ex       Tr      TrW   Tr/Trx    SaltIn   SaltOut    SaltUp  SaltProf     Cycle   SaltStr  FertStr  WeedStr  TempStr   ExpStr   StoStr  BioMass  Brelative   HI    Y(dry)  Y(fresh)    WPet      Bin     Bout     DayN   MonthN    YearN
                                           mm       mm  degC.day    ppm        mm       mm       mm       mm       mm       mm        %       mm       mm        %    ton/ha    ton/ha    ton/ha    ton/ha      days       %        %        %        %        %        %    ton/ha        %       %    ton/ha   ton/ha    kg/m3   ton/ha   ton/ha
   Tot(1)        1       11     2010     12.9    555.9   2967.5   390.74    220.0    232.9      0.0      0.0      0.0    137.4       50    161.9    161.9       73     0.000     0.000     0.000     0.000      137        0        0        0        0       65       23     7.309       45     40.4    2.956   -9.900     1.01    0.000    0.000       25        3     2011  Wheat_Badin_1Nov_7d11mm_85.PRM
   Tot(2)        1       11     2011      1.5    558.4   2953.8   392.73    220.0    221.5      0.0      0.0      0.0    132.0       47    155.9    155.9       72     0.000     0.000     0.000     0.000      139        0        0        0        0       66       23     7.100       43     39.7    2.821   -9.900     0.99    0.000    0.000       25        3     2012  Wheat_Badin_1Nov_7d11mm_85.PRM
   Tot(3)        1       11     2012      2.2    561.0   2961.2   395.15    220.0    222.2      0.0      0.0      0.0    132.4       48    157.7    157.7       69     0.000     0.000     0.000     0.000      137        0        0        0        0       65       26     7.166       43     40.1    2.873   -9.900     1.01    0.000    0.000       25        3     2013  Wheat_Badin_1Nov_7d11mm_85.PRM
   Tot(4)        1       11     2013      4.8    551.8   2965.8   397.51    220.0    224.8      0.0      0.0      0.0    123.9       49    170.4    170.4       70     0.000     0.000     0.000     0.000      137        0        0        0        0       62       26     7.955       48     40.0    3.182   -9.900     1.10    0.000    0.000       25        3     2014  Wheat_Badin_1Nov_7d11mm_85.PRM
   Tot(5)        1       11     2014      3.0    562.1   2971.7   400.27    220.0    223.0      0.0      0.0      0.0    136.9       48    153.3    153.3       70     0.000     0.000     0.000     0.000      137        0        0        0        0       66       25     6.922       42     39.4    2.729   -9.900     0.96    0.000    0.000       25        3     2015  Wheat_Badin_1Nov_7d11mm_85.PRM
   Tot(6)        1       11     2015      2.3    557.1   2960.5   403.00    220.0    222.3      0.0      0.0      0.0    131.5       46    155.8    155.8       72     0.000     0.000     0.000     0.000      136        0        0        0        0       66       24     7.065       43     40.4    2.853   -9.900     1.03    0.000    0.000       23        3     2016  Wheat_Badin_1Nov_7d11mm_85.PRM
   Tot(7)        1       11     2016      4.7    561.3   2961.0   405.50    220.0    224.7      0.0      0.0      0.0    137.9       47    151.2    151.2       71     0.000     0.000     0.000     0.000      134        0        0        0        0       66       24     6.801       41     40.1    2.729   -9.900     0.97    0.000    0.000       22        3     2017  Wheat_Badin_1Nov_7d11mm_85.PRM
   Tot(8)        1       11     2017      3.3    555.5   2954.2   408.50    220.0    223.3      0.0      0.0      0.0    128.9       47    159.3    159.3       71     0.000     0.000     0.000     0.000      136        0        0        0        0       64       24     7.394       44     39.5    2.922   -9.900     1.04    0.000    0.000       23        3     2018  Wheat_Badin_1Nov_7d11mm_85.PRM
   Tot(9)        1       11     2018      5.9    557.8   2971.8   411.50    220.0    225.9      0.0      0.0      0.0    138.8       47    150.2    150.2       72     0.000     0.000     0.000     0.000      135        0        0        0        0       67       23     6.920       42     39.9    2.758   -9.900     0.98    0.000    0.000       23        3     2019  Wheat_Badin_1Nov_7d11mm_85.PRM
  Tot(10)        1       11     2019      3.2    556.1   2957.5   414.50    220.0    223.2      0.0      0.0      0.0    134.5       46    149.3    149.3       73     0.000     0.000     0.000     0.000      135        0        0        0        0       68       22     6.808       41     40.0    2.722   -9.900     0.99    0.000    0.000       22        3     2020  Wheat_Badin_1Nov_7d11mm_85.PRM
  Tot(11)        1       11     2020      2.8    557.6   2951.7   417.50    220.0    222.8      0.0      0.0      0.0    129.0       47    159.1    159.1       71     0.000     0.000     0.000     0.000      136        0        0        0        0       66       25     7.477       44     40.4    3.020   -9.900     1.08    0.000    0.000       23        3     2021  Wheat_Badin_1Nov_7d11mm_85.PRM
  Tot(12)        1       11     2021      2.7    560.7   2951.9   420.50    220.0    222.7      0.0      0.0      0.0    129.9       46    157.3    157.3       72     0.000     0.000     0.000     0.000      138        0        0        0        0       65       24     7.432       43     39.6    2.944   -9.900     1.04    0.000    0.000       24        3     2022  Wheat_Badin_1Nov_7d11mm_85.PRM
  Tot(13)        1       11     2022      3.3    567.8   2970.2   423.50    220.0    223.3      0.0      0.0      0.0    140.8       47    146.4    146.4       71     0.000     0.000     0.000     0.000      135        0        0        0        0       67       25     6.786       40     39.6    2.685   -9.900     0.96    0.000    0.000       23        3     2023  Wheat_Badin_1Nov_7d11mm_85.PRM
  Tot(14)        1       11     2023      3.7    555.9   2973.3   426.50    220.0    223.7      0.0      0.0      0.0    122.1       46    167.1    167.1       73     0.000     0.000     0.000     0.000      138        0        0        0        0       64       22     8.155       47     39.8    3.249   -9.900     1.14    0.000    0.000       25        3     2024  Wheat_Badin_1Nov_7d11mm_85.PRM
  Tot(15)        1       11     2024      0.5    565.1   2959.2   429.50    220.0    220.5      0.0      0.0      0.0    133.4       46    151.7    151.7       71     0.000     0.000     0.000     0.000      135        0        0        0        0       67       25     7.023       41     39.5    2.775   -9.900     1.00    0.000    0.000       23        3     2025  Wheat_Badin_1Nov_7d11mm_85.PRM
  Tot(16)        1       11     2025      5.4    559.2   2971.9   433.00    220.0    225.4      0.0      0.0      0.0    137.5       46    150.3    150.3       74     0.000     0.000     0.000     0.000      138        0        0        0        0       67       23     7.269       41     40.0    2.910   -9.900     1.03    0.000    0.000       25        3     2026  Wheat_Badin_1Nov_7d11mm_85.PRM
  Tot(17)        1       11     2026     15.3    556.6   2962.4   436.50    220.0    235.3      0.0      0.0      0.0    137.0       51    163.4    163.4       71     0.000     0.000     0.000     0.000      134        0        0        0        0       65       25     7.904       46     39.3    3.108   -9.900     1.06    0.000    0.000       22        3     2027  Wheat_Badin_1Nov_7d11mm_85.PRM
  Tot(18)        1       11     2027      0.3    556.7   2968.0   440.00    220.0    220.3      0.0      0.0      0.0    131.0       48    154.3    154.3       71     0.000     0.000     0.000     0.000      135        0        0        0        0       66       25     7.466       43     40.2    3.000   -9.900     1.09    0.000    0.000       22        3     2028  Wheat_Badin_1Nov_7d11mm_85.PRM
  Tot(19)        1       11     2028      3.3    555.5   2958.0   443.50    220.0    223.3      0.0      0.0      0.0    130.6       47    156.9    156.9       72     0.000     0.000     0.000     0.000      136        0        0        0        0       66       24     7.787       44     40.5    3.153   -9.900     1.13    0.000    0.000       24        3     2029  Wheat_Badin_1Nov_7d11mm_85.PRM
  Tot(20)        1       11     2029      4.0    550.0   2951.5   447.00    220.0    224.0      0.0      0.0      0.0    132.0       47    151.0    151.0       72     0.000     0.000     0.000     0.000      134        0        0        0        0       67       24     7.284       42     39.7    2.891   -9.900     1.04    0.000    0.000       20        3     2030  Wheat_Badin_1Nov_7d11mm_85.PRM
  Tot(21)        1       11     2030      0.0    556.1   2961.4   450.50    220.0    220.0      0.0      0.0      0.0    132.2       47    149.8    149.8       71     0.000     0.000     0.000     0.000      133        0        0        0        0       68       24     7.328       42     40.3    2.956   -9.900     1.08    0.000    0.000       21        3     2031  Wheat_Badin_1Nov_7d11mm_85.PRM
  Tot(22)        1       11     2031      3.6    557.0   2969.6   454.00    220.0    223.6      0.0      0.0      0.0    137.6       45    143.6    143.6       76     0.000     0.000     0.000     0.000      134        0        0        0        0       69       21     7.175       41     40.3    2.889   -9.900     1.06    0.000    0.000       21        3     2032  Wheat_Badin_1Nov_7d11mm_85.PRM
  Tot(23)        1       11     2032      4.1    551.0   2953.9   458.00    220.0    224.1      0.0      0.0      0.0    117.3       44    166.1    166.1       74     0.000     0.000     0.000     0.000      135        0        0        0        0       64       22     8.225       46     41.0    3.369   -9.900     1.22    0.000    0.000       21        3     2033  Wheat_Badin_1Nov_7d11mm_85.PRM
  Tot(24)        1       11     2033      1.5    548.8   2972.3   462.00    220.0    221.5      0.0      0.0      0.0    129.2       50    159.3    159.3       69     0.000     0.000     0.000     0.000      136        0        0        0        0       63       26     8.145       45     40.0    3.255   -9.900     1.16    0.000    0.000       23        3     2034  Wheat_Badin_1Nov_7d11mm_85.PRM
  Tot(25)        1       11     2034      5.0    552.0   2966.2   466.00    220.0    225.0      0.0      0.0      0.0    134.1       48    155.3    155.3       71     0.000     0.000     0.000     0.000      134        0        0        0        0       66       24     7.859       44     39.5    3.106   -9.900     1.11    0.000    0.000       22        3     2035  Wheat_Badin_1Nov_7d11mm_85.PRM
  Tot(26)        1       11     2035      5.0    548.3   2962.5   470.00    220.0    225.0      0.0      0.0      0.0    132.0       46    150.5    150.5       75     0.000     0.000     0.000     0.000      134        0        0        0        0       67       21     7.642       43     40.8    3.116   -9.900     1.14    0.000    0.000       20        3     2036  Wheat_Badin_1Nov_7d11mm_85.PRM
  Tot(27)        1       11     2036      1.0    563.4   2957.3   474.00    220.0    221.0      0.0      0.0      0.0    135.4       44    141.8    141.8       73     0.000     0.000     0.000     0.000      133        0        0        0        0       69       23     6.937       39     40.5    2.809   -9.900     1.03    0.000    0.000       20        3     2037  Wheat_Badin_1Nov_7d11mm_85.PRM
  Tot(28)        1       11     2037      4.5    552.7   2973.9   478.50    220.0    224.5      0.0      0.0      0.0    134.6       48    153.4    153.4       72     0.000     0.000     0.000     0.000      135        0        0        0        0       65       24     7.950       44     39.6    3.150   -9.900     1.13    0.000    0.000       22        3     2038  Wheat_Badin_1Nov_7d11mm_85.PRM
  Tot(29)        1       11     2038      1.5    562.9   2966.3   483.00    220.0    221.5      0.0      0.0      0.0    136.4       47    146.9    146.9       72     0.000     0.000     0.000     0.000      134        0        0        0        0       67       23     7.443       41     39.7    2.956   -9.900     1.07    0.000    0.000       21        3     2039  Wheat_Badin_1Nov_7d11mm_85.PRM
  Tot(30)        1       11     2039      2.8    547.7   2952.8   487.00    220.0    222.8      0.0      0.0      0.0    127.3       46    153.5    153.5       73     0.000     0.000     0.000     0.000      132        0        0        0        0       68       22     7.753       43     39.9    3.096   -9.900     1.13    0.000    0.000       19        3     2040  Wheat_Badin_1Nov_7d11mm_85.PRM
  Tot(31)        1       11     2040      2.6    558.8   2970.0   491.50    220.0    222.6      0.0      0.0      0.0    136.2       46    147.8    147.8       73     0.000     0.000     0.000     0.000      133        0        0        0        0       68       23     7.528       41     39.8    2.995   -9.900     1.09    0.000    0.000       21        3     2041  Wheat_Badin_1Nov_7d11mm_85.PRM
  Tot(32)        1       11     2041      5.0    549.6   2955.2   496.50    220.0    225.0      0.0      0.0      0.0    130.3       48    156.1    156.1       73     0.000     0.000     0.000     0.000      134        0        0        0        0       65       22     8.215       44     39.9    3.280   -9.900     1.18    0.000    0.000       21        3     2042  Wheat_Badin_1Nov_7d11mm_85.PRM
  Tot(33)        1       11     2042      2.1    556.2   2963.6   501.50    220.0    222.1      0.0      0.0      0.0    128.6       47    155.7    155.7       72     0.000     0.000     0.000     0.000      134        0        0        0        0       66       24     8.131       44     39.6    3.223   -9.900     1.17    0.000    0.000       21        3     2043  Wheat_Badin_1Nov_7d11mm_85.PRM
  Tot(34)        1       11     2043      0.3    560.3   2957.8   506.00    220.0    220.3      0.0      0.0      0.0    134.5       46    143.7    143.7       72     0.000     0.000     0.000     0.000      132        0        0        0        0       68       24     7.352       40     39.7    2.920   -9.900     1.08    0.000    0.000       19        3     2044  Wheat_Badin_1Nov_7d11mm_85.PRM
  Tot(35)        1       11     2044      3.5    548.7   2966.4   510.50    220.0    223.5      0.0      0.0      0.0    132.6       48    152.8    152.8       72     0.000     0.000     0.000     0.000      134        0        0        0        0       65       23     8.252       44     40.4    3.330   -9.900     1.20    0.000    0.000       21        3     2045  Wheat_Badin_1Nov_7d11mm_85.PRM
  Tot(36)        1       11     2045      1.6    562.0   2967.8   516.00    220.0    221.6      0.0      0.0      0.0    137.7       44    140.8    140.8       76     0.000     0.000     0.000     0.000      134        0        0        0        0       69       20     7.403       40     40.2    2.979   -9.900     1.10    0.000    0.000       21        3     2046  Wheat_Badin_1Nov_7d11mm_85.PRM
  Tot(37)        1       11     2046      2.1    547.6   2970.2   521.50    220.0    222.1      0.0      0.0      0.0    129.9       49    153.2    153.2       72     0.000     0.000     0.000     0.000      134        0        0        0        0       66       24     8.267       44     39.7    3.280   -9.900     1.19    0.000    0.000       21        3     2047  Wheat_Badin_1Nov_7d11mm_85.PRM
  Tot(38)        1       11     2047      1.3    553.7   2968.0   526.50    220.0    221.3      0.0      0.0      0.0    130.6       48    151.2    151.2       71     0.000     0.000     0.000     0.000      133        0        0        0        0       67       24     8.051       43     39.5    3.183   -9.900     1.16    0.000    0.000       19        3     2048  Wheat_Badin_1Nov_7d11mm_85.PRM
  Tot(39)        1       11     2048      5.1    550.0   2957.6   532.00    220.0    225.1      0.0      0.0      0.0    127.9       45    153.5    153.5       75     0.000     0.000     0.000     0.000      133        0        0        0        0       67       21     8.311       44     40.1    3.336   -9.900     1.22    0.000    0.000       20        3     2049  Wheat_Badin_1Nov_7d11mm_85.PRM
  Tot(40)        1       11     2049      2.8    548.1   2965.0   538.00    209.0    211.8      0.0      0.0      0.0    128.7       45    146.4    146.4       74     0.000     0.000     0.000     0.000      132        0        0        0        0       67       23     7.927       42     40.0    3.167   -9.900     1.16    0.000    0.000       19        3     2050  Wheat_Badin_1Nov_7d11mm_85.PRM
  Tot(41)        1       11     2050      8.0    546.3   2956.4   543.50    209.0    217.0      0.0      0.0      0.0    128.5       46    152.8    152.8       73     0.000     0.000     0.000     0.000      131        0        0        0        0       66       24     8.298       44     39.7    3.292   -9.900     1.20    0.000    0.000       18        3     2051  Wheat_Badin_1Nov_7d11mm_85.PRM
  Tot(42)        1       11     2051      2.0    548.4   2960.5   549.00    220.0    222.0      0.0      0.0      0.0    135.2       46    142.4    142.4       75     0.000     0.000     0.000     0.000      132        0        0        0        0       69       21     7.821       41     39.1    3.062   -9.900     1.13    0.000    0.000       19        3     2052  Wheat_Badin_1Nov_7d11mm_85.PRM
  Tot(43)        1       11     2052     20.4    560.3   2970.0   555.00    220.0    240.4      0.0      0.0      0.0    135.3       53    167.2    167.2       70     0.000     0.000     0.000     0.000      133        0        0        0        0       65       26     9.063       48     39.3    3.564   -9.900     1.21    0.000    0.000       20        3     2053  Wheat_Badin_1Nov_7d11mm_85.PRM
  Tot(44)        1       11     2053      0.0    557.8   2973.2   561.00    209.0    209.0      0.0      0.0      0.0    132.5       44    137.3    137.3       73     0.000     0.000     0.000     0.000      129        0        0        0        0       68       23     7.246       39     39.9    2.891   -9.900     1.11    0.000    0.000       16        3     2054  Wheat_Badin_1Nov_7d11mm_85.PRM
  Tot(45)        1       11     2054      2.5    540.0   2955.2   567.50    209.0    211.5      0.0      0.0      0.0    127.4       48    147.0    147.0       72     0.000     0.000     0.000     0.000      129        0        0        0        0       65       24     8.051       43     40.2    3.238   -9.900     1.22    0.000    0.000       16        3     2055  Wheat_Badin_1Nov_7d11mm_85.PRM
  Tot(46)        1       11     2055      8.1    552.9   2955.8   574.00    209.0    217.1      0.0      0.0      0.0    131.4       43    142.5    142.5       78     0.000     0.000     0.000     0.000      131        0        0        0        0       68       19     7.813       41     41.2    3.217   -9.900     1.20    0.000    0.000       17        3     2056  Wheat_Badin_1Nov_7d11mm_85.PRM
  Tot(47)        1       11     2056     12.8    544.2   2954.3   580.00    209.0    221.8      0.0      0.0      0.0    127.2       52    161.3    161.3       70     0.000     0.000     0.000     0.000      131        0        0        0        0       64       26     8.960       47     39.3    3.519   -9.900     1.24    0.000    0.000       17        3     2057  Wheat_Badin_1Nov_7d11mm_85.PRM
  Tot(48)        1       11     2057      6.3    550.1   2959.2   586.50    209.0    215.3      0.0      0.0      0.0    130.7       44    143.8    143.8       75     0.000     0.000     0.000     0.000      130        0        0        0        0       67       22     7.952       42     40.0    3.184   -9.900     1.20    0.000    0.000       17        3     2058  Wheat_Badin_1Nov_7d11mm_85.PRM
  Tot(49)        1       11     2058     40.7    549.1   2958.2   593.50    209.0    248.4      1.3      0.0      0.0    113.4       60    205.7    205.7       70     0.000     0.000     0.000     0.000      131        0        0        0        0       56       29    11.534       60     39.6    4.572   -9.900     1.46    0.000    0.000       18        3     2059  Wheat_Badin_1Nov_7d11mm_85.PRM
  Tot(50)        1       11     2059      1.0    550.9   2953.2   600.50    209.0    210.0      0.0      0.0      0.0    135.7       43    130.3    130.3       77     0.000     0.000     0.000     0.000      129        0        0        0        0       69       20     7.237       38     40.3    2.919   -9.900     1.13    0.000    0.000       15        3     2060  Wheat_Badin_1Nov_7d11mm_85.PRM
  Tot(51)        1       11     2060      3.6    545.6   2974.4   607.50    209.0    212.6      0.0      0.0      0.0    127.3       47    147.8    147.8       73     0.000     0.000     0.000     0.000      130        0        0        0        0       65       23     8.468       44     39.8    3.370   -9.900     1.27    0.000    0.000       17        3     2061  Wheat_Badin_1Nov_7d11mm_85.PRM
  Tot(52)        1       11     2061      1.5    546.8   2963.1   614.50    209.0    210.5      0.0      0.0      0.0    130.7       43    136.1    136.1       78     0.000     0.000     0.000     0.000      130        0        0        0        0       68       20     7.695       40     39.5    3.040   -9.900     1.18    0.000    0.000       17        3     2062  Wheat_Badin_1Nov_7d11mm_85.PRM
  Tot(53)        1       11     2062      3.8    535.5   2969.0   621.50    209.0    212.8      0.0      0.0      0.0    130.1       48    145.8    145.8       73     0.000     0.000     0.000     0.000      130        0        0        0        0       65       24     8.537       44     40.4    3.452   -9.900     1.29    0.000    0.000       17        3     2063  Wheat_Badin_1Nov_7d11mm_85.PRM
  Tot(54)        1       11     2063      1.8    555.8   2959.1   628.50    209.0    210.8      0.0      0.0      0.0    134.6       44    135.3    135.3       74     0.000     0.000     0.000     0.000      130        0        0        0        0       68       23     7.481       39     40.1    3.002   -9.900     1.15    0.000    0.000       16        3     2064  Wheat_Badin_1Nov_7d11mm_85.PRM
  Tot(55)        1       11     2064      2.6    541.0   2958.8   635.50    209.0    211.6      0.0      0.0      0.0    126.6       45    143.4    143.4       74     0.000     0.000     0.000     0.000      128        0        0        0        0       67       22     8.077       43     40.6    3.283   -9.900     1.26    0.000    0.000       15        3     2065  Wheat_Badin_1Nov_7d11mm_85.PRM
  Tot(56)        1       11     2065      3.0    551.5   2969.1   643.00    209.0    212.0      0.0      0.0      0.0    128.5       42    138.1    138.1       79     0.000     0.000     0.000     0.000      130        0        0        0        0       68       19     7.883       41     40.6    3.201   -9.900     1.24    0.000    0.000       17        3     2066  Wheat_Badin_1Nov_7d11mm_85.PRM
  Tot(57)        1       11     2066     26.2    541.6   2957.7   650.50    198.0    224.2      0.0      0.0      0.0    123.8       52    167.5    167.5       70     0.000     0.000     0.000     0.000      125        0        0        0        0       61       26     9.324       50     39.3    3.660   -9.900     1.28    0.000    0.000       12        3     2067  Wheat_Badin_1Nov_7d11mm_85.PRM
  Tot(58)        1       11     2067      2.3    563.7   2962.6   658.00    209.0    211.3      0.0      0.0      0.0    137.5       42    128.8    128.8       78     0.000     0.000     0.000     0.000      129        0        0        0        0       69       20     7.159       37     40.5    2.897   -9.900     1.13    0.000    0.000       15        3     2068  Wheat_Badin_1Nov_7d11mm_85.PRM
  Tot(59)        1       11     2068      5.1    554.8   2954.2   665.50    209.0    214.1      0.0      0.0      0.0    136.2       43    131.5    131.5       78     0.000     0.000     0.000     0.000      128        0        0        0        0       69       19     7.429       39     40.4    3.001   -9.900     1.16    0.000    0.000       15        3     2069  Wheat_Badin_1Nov_7d11mm_85.PRM
  Tot(60)        1       11     2069      1.6    548.3   2957.0   673.00    209.0    210.6      0.0      0.0      0.0    134.5       44    131.1    131.1       76     0.000     0.000     0.000     0.000      132        0        0        0        0       68       23     7.437       39     40.9    3.042   -9.900     1.14    0.000    0.000       14        3     2070  Wheat_Badin_1Nov_7d11mm_85.PRM
  Tot(61)        1       11     2070      0.9    552.0   2957.3   681.00    209.0    209.9      0.0      0.0      0.0    133.4       43    127.4    127.4       77     0.000     0.000     0.000     0.000      131        0        0        0        0       68       23     7.174       38     40.2    2.885   -9.900     1.11    0.000    0.000       13        3     2071  Wheat_Badin_1Nov_7d11mm_85.PRM
  Tot(62)        1       11     2071      2.0    555.6   2971.7   689.00    209.0    211.0      0.0      0.0      0.0    139.1       43    125.5    125.5       77     0.000     0.000     0.000     0.000      127        0        0        0        0       69       19     7.035       37     40.5    2.848   -9.900     1.11    0.000    0.000       13        3     2072  Wheat_Badin_1Nov_7d11mm_85.PRM
  Tot(63)        1       11     2072      0.3    557.9   2959.3   697.00    209.0    209.3      0.0      0.0      0.0    132.7       43    131.8    131.8       76     0.000     0.000     0.000     0.000      127        0        0        0        0       68       20     7.376       39     40.8    3.011   -9.900     1.18    0.000    0.000       14        3     2073  Wheat_Badin_1Nov_7d11mm_85.PRM
  Tot(64)        1       11     2073      8.1    543.7   2951.1   705.00    198.0    206.1      0.0      0.0      0.0    130.4       44    135.1    135.1       75     0.000     0.000     0.000     0.000      126        0        0        0        0       67       21     7.700       41     40.3    3.100   -9.900     1.18    0.000    0.000       12        3     2074  Wheat_Badin_1Nov_7d11mm_85.PRM
  Tot(65)        1       11     2074      3.0    537.2   2954.3   713.00    209.0    212.0      0.0      0.0      0.0    128.9       45    135.4    135.4       76     0.000     0.000     0.000     0.000      127        0        0        0        0       67       20     7.852       42     40.3    3.163   -9.900     1.22    0.000    0.000       13        3     2075  Wheat_Badin_1Nov_7d11mm_85.PRM
  Tot(66)        1       11     2075      3.8    548.2   2963.0   721.00    209.0    212.8      0.0      0.0      0.0    132.9       43    129.7    129.7       78     0.000     0.000     0.000     0.000      126        0        0        0        0       68       20     7.469       39     40.4    3.015   -9.900     1.18    0.000    0.000       12        3     2076  Wheat_Badin_1Nov_7d11mm_85.PRM
  Tot(67)        1       11     2076      1.8    539.6   2959.0   729.00    198.0    199.8      0.0      0.0      0.0    127.0       44    133.6    133.6       75     0.000     0.000     0.000     0.000      125        0        0        0        0       66       21     7.719       41     40.2    3.103   -9.900     1.21    0.000    0.000       12        3     2077  Wheat_Badin_1Nov_7d11mm_85.PRM
  Tot(68)        1       11     2077     30.2    544.4   2966.4   737.50    198.0    227.9      0.3      0.0      0.0    119.9       58    177.3    177.3       69     0.000     0.000     0.000     0.000      125        0        0        0        0       61       29    10.147       54     38.9    3.943   -9.900     1.34    0.000    0.000       12        3     2078  Wheat_Badin_1Nov_7d11mm_85.PRM
  Tot(69)        1       11     2078      0.0    548.5   2965.0   746.00    209.0    209.0      0.0      0.0      0.0    135.5       43    122.9    122.9       78     0.000     0.000     0.000     0.000      126        0        0        0        0       69       19     7.050       37     40.6    2.861   -9.900     1.14    0.000    0.000       13        3     2079  Wheat_Badin_1Nov_7d11mm_85.PRM
  Tot(70)        1       11     2079      2.3    532.8   2966.0   754.00    198.0    200.3      0.0      0.0      0.0    129.7       44    127.5    127.5       77     0.000     0.000     0.000     0.000      125        0        0        0        0       67       19     7.484       40     40.5    3.032   -9.900     1.19    0.000    0.000       11        3     2080  Wheat_Badin_1Nov_7d11mm_85.PRM
  Tot(71)        1       11     2080      2.5    539.9   2968.8   762.50    198.0    200.5      0.0      0.0      0.0    129.9       43    127.0    127.0       77     0.000     0.000     0.000     0.000      124        0        0        0        0       68       20     7.337       39     40.5    2.969   -9.900     1.18    0.000    0.000       11        3     2081  Wheat_Badin_1Nov_7d11mm_85.PRM
  Tot(72)        1       11     2081     22.2    531.7   2951.9   771.00    209.0    231.2      0.0      0.0      0.0    118.7       50    167.6    167.6       78     0.000     0.000     0.000     0.000      127        0        0        0        0       58       18    10.077       53     40.9    4.121   -9.900     1.47    0.000    0.000       13        3     2082  Wheat_Badin_1Nov_7d11mm_85.PRM
  Tot(73)        1       11     2082      0.6    545.9   2964.1   779.50    198.0    198.6      0.0      0.0      0.0    132.3       42    119.8    119.8       78     0.000     0.000     0.000     0.000      125        0        0        0        0       70       19     6.864       37     40.7    2.791   -9.900     1.12    0.000    0.000       12        3     2083  Wheat_Badin_1Nov_7d11mm_85.PRM
  Tot(74)        1       11     2083      5.8    544.2   2972.4   788.00    198.0    203.8      0.0      0.0      0.0    135.4       45    126.8    126.8       76     0.000     0.000     0.000     0.000      125        0        0        0        0       68       21     7.381       39     40.4    2.982   -9.900     1.15    0.000    0.000       11        3     2084  Wheat_Badin_1Nov_7d11mm_85.PRM
  Tot(75)        1       11     2084     24.0    538.4   2961.4   796.50    198.0    222.0      0.0      0.0      0.0    126.0       49    154.9    154.9       76     0.000     0.000     0.000     0.000      123        0        0        0        0       62       21     8.987       49     40.1    3.604   -9.900     1.32    0.000    0.000       10        3     2085  Wheat_Badin_1Nov_7d11mm_85.PRM
  Tot(76)        1       11     2085     40.6    542.0   2966.3   805.50    209.0    248.0      1.6      0.0      0.0    108.5       50    191.1    191.1       80     0.000     0.000     0.000     0.000      126        0        0        0        0       52       17    11.287       60     41.0    4.627   -9.900     1.57    0.000    0.000       13        3     2086  Wheat_Badin_1Nov_7d11mm_85.PRM
  Tot(77)        1       11     2086      1.8    539.4   2963.7   814.00    198.0    199.8      0.0      0.0      0.0    127.7       43    130.1    130.1       76     0.000     0.000     0.000     0.000      125        0        0        0        0       67       21     7.700       41     40.4    3.109   -9.900     1.22    0.000    0.000       12        3     2087  Wheat_Badin_1Nov_7d11mm_85.PRM
  Tot(78)        1       11     2087      1.5    542.3   2961.3   822.50    198.0    199.5      0.0      0.0      0.0    132.5       42    120.4    120.4       78     0.000     0.000     0.000     0.000      123        0        0        0        0       70       20     6.933       38     40.5    2.810   -9.900     1.15    0.000    0.000        9        3     2088  Wheat_Badin_1Nov_7d11mm_85.PRM
  Tot(79)        1       11     2088      0.5    532.6   2967.6   831.50    198.0    198.5      0.0      0.0      0.0    127.2       44    127.2    127.2       77     0.000     0.000     0.000     0.000      123        0        0        0        0       69       20     7.472       41     40.4    3.018   -9.900     1.23    0.000    0.000       10        3     2089  Wheat_Badin_1Nov_7d11mm_85.PRM
  Tot(80)        1       11     2089      1.8    556.1   2968.0   840.50    198.0    199.8      0.0      0.0      0.0    140.5       39    106.4    106.4       81     0.000     0.000     0.000     0.000      123        0        0        0        0       73       18     6.048       33     40.9    2.475   -9.900     1.04    0.000    0.000       10        3     2090  Wheat_Badin_1Nov_7d11mm_85.PRM
  Tot(81)        1       11     2090      3.3    544.7   2956.0   849.50    198.0    201.3      0.0      0.0      0.0    132.4       43    121.6    121.6       78     0.000     0.000     0.000     0.000      123        0        0        0        0       69       18     6.913       38     40.6    2.810   -9.900     1.15    0.000    0.000       10        3     2091  Wheat_Badin_1Nov_7d11mm_85.PRM
  Tot(82)        1       11     2091      1.5    538.7   2966.0   858.50    198.0    199.5      0.0      0.0      0.0    132.9       41    114.4    114.4       82     0.000     0.000     0.000     0.000      122        0        0        0        0       71       16     6.652       37     40.0    2.662   -9.900     1.12    0.000    0.000        8        3     2092  Wheat_Badin_1Nov_7d11mm_85.PRM
  Tot(83)        1       11     2092      1.9    543.5   2956.2   867.50    198.0    199.9      0.0      0.0      0.0    137.1       41    110.1    110.1       81     0.000     0.000     0.000     0.000      123        0        0        0        0       72       16     6.347       35     41.0    2.605   -9.900     1.09    0.000    0.000        9        3     2093  Wheat_Badin_1Nov_7d11mm_85.PRM
  Tot(84)        1       11     2093     29.1    540.7   2958.1   876.50    198.0    226.2      0.9      0.0      0.0    134.9       57    153.7    153.7       71     0.000     0.000     0.000     0.000      123        0        0        0        0       66       27     8.855       49     39.7    3.511   -9.900     1.25    0.000    0.000        9        3     2094  Wheat_Badin_1Nov_7d11mm_85.PRM
  Tot(85)        1       11     2094      0.0    540.6   2962.4   885.50    198.0    198.0      0.0      0.0      0.0    128.4       43    125.1    125.1       77     0.000     0.000     0.000     0.000      124        0        0        0        0       68       20     7.296       40     40.2    2.931   -9.900     1.18    0.000    0.000       11        3     2095  Wheat_Badin_1Nov_7d11mm_85.PRM
  Tot(86)        1       11     2095      1.8    531.2   2954.5   894.50    198.0    199.8      0.0      0.0      0.0    128.0       42    121.7    121.7       80     0.000     0.000     0.000     0.000      123        0        0        0        0       70       18     7.189       40     40.8    2.930   -9.900     1.21    0.000    0.000        8        3     2096  Wheat_Badin_1Nov_7d11mm_85.PRM
  Tot(87)        1       11     2096      4.5    545.8   2974.6   903.50    198.0    202.5      0.0      0.0      0.0    133.4       41    119.6    119.6       79     0.000     0.000     0.000     0.000      122        0        0        0        0       70       19     6.891       38     40.7    2.803   -9.900     1.15    0.000    0.000        9        3     2097  Wheat_Badin_1Nov_7d11mm_85.PRM
  Tot(88)        1       11     2097      3.0    528.0   2960.1   912.50    198.0    201.0      0.0      0.0      0.0    125.7       45    128.7    128.7       78     0.000     0.000     0.000     0.000      123        0        0        0        0       68       20     7.681       43     40.6    3.115   -9.900     1.27    0.000    0.000        9        3     2098  Wheat_Badin_1Nov_7d11mm_85.PRM
  Tot(89)        1       11     2098     11.4    539.8   2960.7   922.00    198.0    209.4      0.0      0.0      0.0    135.4       42    122.6    122.6       82     0.000     0.000     0.000     0.000      122        0        0        0        0       70       17     7.225       40     40.7    2.939   -9.900     1.18    0.000    0.000        9        3     2099  Wheat_Badin_1Nov_7d11mm_85.PRM
